
$ADD_PRE_BULK_CARDS
ID,CRM Wing Statics
SOL,1
CEND
TITLE = CRM_Wing Full Model Static Analyses For Extraction
SPC=101
$Marker to place python generated subcases
$${
$$}


BEGIN BULK
PARAM, GRDPNT, 7000 



$Elements
CROD,4049,1434,4,484
CROD,4050,1434,484,14
CROD,4051,1434,1,486
CROD,4052,1434,486,11
CROD,4129,1434,3,485
CROD,4130,1434,485,13
CROD,4131,1434,2,487
CROD,4132,1434,487,12
CROD,4209,1434,6,488
CROD,4210,1434,488,16
CROD,4211,1434,5,489
CROD,4212,1434,489,15
CROD,4289,1434,8,490
CROD,4290,1434,490,18
CROD,4291,1434,7,491
CROD,4292,1434,491,17
CROD,4369,1434,10,492
CROD,4370,1434,492,20
CROD,4371,1434,9,493
CROD,4372,1434,493,19
CQUAD4,4449,1417,1,211,684,214
CQUAD4,4450,1417,214,684,213,4
CQUAD4,4451,1417,211,2,212,684
CQUAD4,4452,1417,684,212,3,213
CQUAD4,4453,1417,2,215,685,212
CQUAD4,4454,1417,212,685,217,3
CQUAD4,4455,1417,215,5,216,685
CQUAD4,4456,1417,685,216,6,217
CQUAD4,4457,1417,5,218,686,216
CQUAD4,4458,1417,216,686,220,6
CQUAD4,4459,1417,218,7,219,686
CQUAD4,4460,1417,686,219,8,220
CQUAD4,4461,1417,7,221,687,219
CQUAD4,4462,1417,219,687,223,8
CQUAD4,4463,1417,221,9,222,687
CQUAD4,4464,1417,687,222,10,223
CQUAD4,4465,1417,11,224,688,227
CQUAD4,4466,1417,227,688,226,14
CQUAD4,4467,1417,224,12,225,688
CQUAD4,4468,1417,688,225,13,226
$ ... 56 like lines cut

$Grid Points
GRID,1,0,0.5,0.0,-0.25503,77
GRID,2,0,2.625256,0.0,-0.25503,77
GRID,3,0,2.625256,0.0,0.255031,77
GRID,4,0,0.5,0.0,0.255031,77
GRID,5,0,4.750512,0.0,-0.25503,77
GRID,6,0,4.750512,0.0,0.255031,77
GRID,7,0,6.875768,0.0,-0.25503,77
GRID,8,0,6.875768,0.0,0.255031,77
GRID,9,0,9.001024,0.0,-0.25503,77
GRID,10,0,9.001024,0.0,0.255031,77
GRID,11,0,0.5,1.31,-0.21578,77
GRID,12,0,2.357033,1.31,-0.21578,77
GRID,13,0,2.357033,1.31,0.215787,77
GRID,14,0,0.5,1.31,0.215787,77
GRID,15,0,4.214066,1.31,-0.21578,77
GRID,16,0,4.214066,1.31,0.215787,77
GRID,17,0,6.071099,1.31,-0.21578,77
GRID,18,0,6.071099,1.31,0.215787,77
GRID,19,0,7.928132,1.31,-0.21578,77
GRID,20,0,7.928132,1.31,0.215787,77
$ ... 55 like lines cut

$Shell properties
PSHELL,1417,30,0.01,30,,30
PSHELL,1418,30,0.01,30,,30
PSHELL,1419,30,0.01,30,,30
PSHELL,1420,30,0.01,30,,30
PSHELL,1421,30,0.01,30,,30
PSHELL,1422,30,0.01,30,,30
PSHELL,1423,30,0.01,30,,30
PSHELL,1424,30,0.01,30,,30
PSHELL,1425,30,0.01,30,,30
PSHELL,1426,30,0.01,30,,30
PSHELL,1427,30,0.01,30,,30
PSHELL,1428,30,0.01,30,,30
PSHELL,1429,30,0.01,30,,30
PSHELL,1430,30,0.01,30,,30
PSHELL,1431,30,0.01,30,,30
PSHELL,1432,30,0.01,30,,30
PSHELL,1433,30,0.01,30,,30

$Rod properties
PROD,1434,30,0.000342

MAT1,30,7.000+10,,0.33,2700.0
PARAM,AUTOSPC,1

$Boundary Conditions
SPC1,101,123456,2,3,7000,
,7,8,211,212,213,214,
,215,216,217,218,219,220,221,222,
,223,684,685,686,687
$ADD_BULK_CARDS
$Central nodes
GRID,7000,77,0.0,0.0,0.0,77
$RBE2 elements (CRGID1)
$Reference System for the analysis (x=beam axis)
CORD2R,77, ,1.351401,0.0,0.0,1.351401,0.0,1.0,
      ,1.351401,1.0,0.0
$Marker to place python generated loads
$${
$$}
ENDDATA
