





                                  ****
                                *      *
                               *        *
                               *  N A S T R A N
                               *        *
                                *      *
                                  ****


                            INTEL COMPUTER SYSTEMS   
                                 LINUX VERSION 

                          SYSTEM RELEASE -  1995 ED.

                                DISTRIBUTED BY

         COMPUTER SOFTWARE MANAGEMENT AND INFORMATION CENTER (COSMIC)
                 UNIVERSITY OF GEORGIA, ATHENS, GEORGIA 30602
                 PHONE: (706)542-3265      FAX: (706)542-4807
1                                                                           /    95 INTEL LINUX NASTRAN    / AUG 28, 18 / PAGE     2
                                                                                                                                    
0                                                                                                                                   
                                                                                                         
                                                                                                         
                         INSTALLATION CENTER USER INFORMATION GIVEN IN THIS SECTION                      
                                                                                                         
                                     *********************************************                       
                                     *                                           *                       
                                     *  PLEASE READ THE COMMENT IN DEMO PROBLEM  *                       
                                     *  D01002A ABOUT SYSTEM TIMING CONSTANTS    *                       
                                     *                                           *                       
                                     *********************************************                       
                                                                                                         
                         ===X=    TOP OF PAGE REQUEST IF 'X' IS REPLACED BY '='                          
                                                                                                         
1                                                                           /    95 INTEL LINUX NASTRAN    / AUG 28, 18 / PAGE     3
                                                                                                                                    
0                                                                                                                                   
0*** USER INFORMATION MESSAGE 225, GINO TIME CONSTANTS ARE BEING COMPUTED
     (SEE NASINFO FILE FOR ELIMINATION OF THESE COMPUTATIONS)
1                                                                           /    95 INTEL LINUX NASTRAN    / AUG 28, 18 / PAGE     4
                                                                                                                                    
0        N A S T R A N    E X E C U T I V E    C O N T R O L    D E C K    E C H O                                                  
0                                                                                                                                   
                                                                                                                                    
                                                                                                                                    
     $ADD_PRE_BULK_CARDS                                                             
     ID STICK MODAL                                                                  
     SOL,3                                                                           
     CEND                                                                            
0*** APP  DECLARATION CARD MISSING.  DISPLACEMENT IS SELECTED BY DEFAULT
0*** TIME  CARD MISSING. MAXIMUM EXECUTION TIME IS SET TO 5 MINUTES BY DEFAULT
1     CRM_Wing Full Model Modal                                             /    95 INTEL LINUX NASTRAN    / AUG 28, 18 / PAGE     5
                                                                                                                                    
0                                                                                                                                   
0                                        C A S E    C O N T R O L   D E C K   E C H O                                               
                 CARD                                                                                                               
                 COUNT                                                                                                              
                  1      TITLE = CRM_Wing Full Model Modal                                               
                  2      METHOD=1                                                                        
                  3      SPC=101                                                                         
                  4      SET 1 = 214,                                                                    
                  5      227,240,253,266,279,292,305,318,331,                                            
                  6      344,357,370,383,396,409,422,435,448,                                            
                  7      461,474,222,235,248,261,274,287,300,                                            
                  8      313,326,339,352,365,378,391,404,417,                                            
                  9      430,443,456,469,482                                                             
                 10                                                                                      
                 11                                                                                      
                 12      VECTOR(PUNCH)=1                                                                 
                 13                                                                                      
                 14                                                                                      
                 15      BEGIN BULK                                                                      


                        (NO. OF UNSORTED BULK DATA CARDS READ =  2652, INCLUDING   8 COMMENT CARDS)
0*** USER INFORMATION MESSAGE 207, BULK DATA DECK IS NOT SORTED. NASTRAN WILL RE-ORDER THE INPUT DECK.
1     CRM_Wing Full Model Modal                                             /    95 INTEL LINUX NASTRAN    / AUG 28, 18 / PAGE     6
                                                                                                                                    
0                                                                                                                                   
0                                                 S O R T E D   B U L K    D A T A    E C H O                                       
                     CARD                                                                                                           
                     COUNT        ---1--- +++2+++ ---3--- +++4+++ ---5--- +++6+++ ---7--- +++8+++ ---9--- +++10+++                  
                    1-        CORD2R  77              1.3514010.0     0.0     1.3514010.0     1.0     +C0N0005
                    2-        +C0N00051.3514011.0     0.0                                                     
                    3-        CQUAD4  4449    1417    1       211     684     214                             
                    4-        CQUAD4  4450    1417    214     684     213     4                               
                    5-        CQUAD4  4451    1417    211     2       212     684                             
                    6-        CQUAD4  4452    1417    684     212     3       213                             
                    7-        CQUAD4  4453    1417    2       215     685     212                             
                    8-        CQUAD4  4454    1417    212     685     217     3                               
                    9-        CQUAD4  4455    1417    215     5       216     685                             
                   10-        CQUAD4  4456    1417    685     216     6       217                             
                   11-        CQUAD4  4457    1417    5       218     686     216                             
                   12-        CQUAD4  4458    1417    216     686     220     6                               
                   13-        CQUAD4  4459    1417    218     7       219     686                             
                   14-        CQUAD4  4460    1417    686     219     8       220                             
                   15-        CQUAD4  4461    1417    7       221     687     219                             
                   16-        CQUAD4  4462    1417    219     687     223     8                               
                   17-        CQUAD4  4463    1417    221     9       222     687                             
                   18-        CQUAD4  4464    1417    687     222     10      223                             
                   19-        CQUAD4  4465    1417    11      224     688     227                             
                   20-        CQUAD4  4466    1417    227     688     226     14                              
                   21-        CQUAD4  4467    1417    224     12      225     688                             
                   22-        CQUAD4  4468    1417    688     225     13      226                             
                   23-        CQUAD4  4469    1417    12      228     689     225                             
                   24-        CQUAD4  4470    1417    225     689     230     13                              
                   25-        CQUAD4  4471    1417    228     15      229     689                             
                   26-        CQUAD4  4472    1417    689     229     16      230                             
                   27-        CQUAD4  4473    1417    15      231     690     229                             
                   28-        CQUAD4  4474    1417    229     690     233     16                              
                   29-        CQUAD4  4475    1417    231     17      232     690                             
                   30-        CQUAD4  4476    1417    690     232     18      233                             
                   31-        CQUAD4  4477    1417    17      234     691     232                             
                   32-        CQUAD4  4478    1417    232     691     236     18                              
                   33-        CQUAD4  4479    1417    234     19      235     691                             
                   34-        CQUAD4  4480    1417    691     235     20      236                             
                   35-        CQUAD4  4481    1417    21      237     692     240                             
                   36-        CQUAD4  4482    1417    240     692     239     24                              
                   37-        CQUAD4  4483    1417    237     22      238     692                             
                   38-        CQUAD4  4484    1417    692     238     23      239                             
                   39-        CQUAD4  4485    1417    22      241     693     238                             
                   40-        CQUAD4  4486    1417    238     693     243     23                              
                   41-        CQUAD4  4487    1417    241     25      242     693                             
                   42-        CQUAD4  4488    1417    693     242     26      243                             
                   43-        CQUAD4  4489    1417    25      244     694     242                             
                   44-        CQUAD4  4490    1417    242     694     246     26                              
                   45-        CQUAD4  4491    1417    244     27      245     694                             
                   46-        CQUAD4  4492    1417    694     245     28      246                             
                   47-        CQUAD4  4493    1417    27      247     695     245                             
1     CRM_Wing Full Model Modal                                             /    95 INTEL LINUX NASTRAN    / AUG 28, 18 / PAGE     7
                                                                                                                                    

                                                                                                                                    

                                                  S O R T E D   B U L K    D A T A    E C H O                                       
                     CARD                                                                                                           
                     COUNT        ---1--- +++2+++ ---3--- +++4+++ ---5--- +++6+++ ---7--- +++8+++ ---9--- +++10+++                  
                   48-        CQUAD4  4494    1417    245     695     249     28                              
                   49-        CQUAD4  4495    1417    247     29      248     695                             
                   50-        CQUAD4  4496    1417    695     248     30      249                             
                   51-        CQUAD4  4497    1417    31      250     696     253                             
                   52-        CQUAD4  4498    1417    253     696     252     34                              
                   53-        CQUAD4  4499    1417    250     32      251     696                             
                   54-        CQUAD4  4500    1417    696     251     33      252                             
                   55-        CQUAD4  4501    1417    32      254     697     251                             
                   56-        CQUAD4  4502    1417    251     697     256     33                              
                   57-        CQUAD4  4503    1417    254     35      255     697                             
                   58-        CQUAD4  4504    1417    697     255     36      256                             
                   59-        CQUAD4  4505    1417    35      257     698     255                             
                   60-        CQUAD4  4506    1417    255     698     259     36                              
                   61-        CQUAD4  4507    1417    257     37      258     698                             
                   62-        CQUAD4  4508    1417    698     258     38      259                             
                   63-        CQUAD4  4509    1417    37      260     699     258                             
                   64-        CQUAD4  4510    1417    258     699     262     38                              
                   65-        CQUAD4  4511    1417    260     39      261     699                             
                   66-        CQUAD4  4512    1417    699     261     40      262                             
                   67-        CQUAD4  4513    1417    41      263     700     266                             
                   68-        CQUAD4  4514    1417    266     700     265     44                              
                   69-        CQUAD4  4515    1417    263     42      264     700                             
                   70-        CQUAD4  4516    1417    700     264     43      265                             
                   71-        CQUAD4  4517    1417    42      267     701     264                             
                   72-        CQUAD4  4518    1417    264     701     269     43                              
                   73-        CQUAD4  4519    1417    267     45      268     701                             
                   74-        CQUAD4  4520    1417    701     268     46      269                             
                   75-        CQUAD4  4521    1417    45      270     702     268                             
                   76-        CQUAD4  4522    1417    268     702     272     46                              
                   77-        CQUAD4  4523    1417    270     47      271     702                             
                   78-        CQUAD4  4524    1417    702     271     48      272                             
                   79-        CQUAD4  4525    1417    47      273     703     271                             
                   80-        CQUAD4  4526    1417    271     703     275     48                              
                   81-        CQUAD4  4527    1417    273     49      274     703                             
                   82-        CQUAD4  4528    1417    703     274     50      275                             
                   83-        CQUAD4  4529    1417    51      276     704     279                             
                   84-        CQUAD4  4530    1417    279     704     278     54                              
                   85-        CQUAD4  4531    1417    276     52      277     704                             
                   86-        CQUAD4  4532    1417    704     277     53      278                             
                   87-        CQUAD4  4533    1417    52      280     705     277                             
                   88-        CQUAD4  4534    1417    277     705     282     53                              
                   89-        CQUAD4  4535    1417    280     55      281     705                             
                   90-        CQUAD4  4536    1417    705     281     56      282                             
                   91-        CQUAD4  4537    1417    55      283     706     281                             
                   92-        CQUAD4  4538    1417    281     706     285     56                              
                   93-        CQUAD4  4539    1417    283     57      284     706                             
                   94-        CQUAD4  4540    1417    706     284     58      285                             
1     CRM_Wing Full Model Modal                                             /    95 INTEL LINUX NASTRAN    / AUG 28, 18 / PAGE     8
                                                                                                                                    

                                                                                                                                    

                                                  S O R T E D   B U L K    D A T A    E C H O                                       
                     CARD                                                                                                           
                     COUNT        ---1--- +++2+++ ---3--- +++4+++ ---5--- +++6+++ ---7--- +++8+++ ---9--- +++10+++                  
                   95-        CQUAD4  4541    1417    57      286     707     284                             
                   96-        CQUAD4  4542    1417    284     707     288     58                              
                   97-        CQUAD4  4543    1417    286     59      287     707                             
                   98-        CQUAD4  4544    1417    707     287     60      288                             
                   99-        CQUAD4  4545    1417    61      289     708     292                             
                  100-        CQUAD4  4546    1417    292     708     291     64                              
                  101-        CQUAD4  4547    1417    289     62      290     708                             
                  102-        CQUAD4  4548    1417    708     290     63      291                             
                  103-        CQUAD4  4549    1417    62      293     709     290                             
                  104-        CQUAD4  4550    1417    290     709     295     63                              
                  105-        CQUAD4  4551    1417    293     65      294     709                             
                  106-        CQUAD4  4552    1417    709     294     66      295                             
                  107-        CQUAD4  4553    1417    65      296     710     294                             
                  108-        CQUAD4  4554    1417    294     710     298     66                              
                  109-        CQUAD4  4555    1417    296     67      297     710                             
                  110-        CQUAD4  4556    1417    710     297     68      298                             
                  111-        CQUAD4  4557    1417    67      299     711     297                             
                  112-        CQUAD4  4558    1417    297     711     301     68                              
                  113-        CQUAD4  4559    1417    299     69      300     711                             
                  114-        CQUAD4  4560    1417    711     300     70      301                             
                  115-        CQUAD4  4561    1417    71      302     712     305                             
                  116-        CQUAD4  4562    1417    305     712     304     74                              
                  117-        CQUAD4  4563    1417    302     72      303     712                             
                  118-        CQUAD4  4564    1417    712     303     73      304                             
                  119-        CQUAD4  4565    1417    72      306     713     303                             
                  120-        CQUAD4  4566    1417    303     713     308     73                              
                  121-        CQUAD4  4567    1417    306     75      307     713                             
                  122-        CQUAD4  4568    1417    713     307     76      308                             
                  123-        CQUAD4  4569    1417    75      309     714     307                             
                  124-        CQUAD4  4570    1417    307     714     311     76                              
                  125-        CQUAD4  4571    1417    309     77      310     714                             
                  126-        CQUAD4  4572    1417    714     310     78      311                             
                  127-        CQUAD4  4573    1417    77      312     715     310                             
                  128-        CQUAD4  4574    1417    310     715     314     78                              
                  129-        CQUAD4  4575    1417    312     79      313     715                             
                  130-        CQUAD4  4576    1417    715     313     80      314                             
                  131-        CQUAD4  4577    1417    81      315     716     318                             
                  132-        CQUAD4  4578    1417    318     716     317     84                              
                  133-        CQUAD4  4579    1417    315     82      316     716                             
                  134-        CQUAD4  4580    1417    716     316     83      317                             
                  135-        CQUAD4  4581    1417    82      319     717     316                             
                  136-        CQUAD4  4582    1417    316     717     321     83                              
                  137-        CQUAD4  4583    1417    319     85      320     717                             
                  138-        CQUAD4  4584    1417    717     320     86      321                             
                  139-        CQUAD4  4585    1417    85      322     718     320                             
                  140-        CQUAD4  4586    1417    320     718     324     86                              
                  141-        CQUAD4  4587    1417    322     87      323     718                             
1     CRM_Wing Full Model Modal                                             /    95 INTEL LINUX NASTRAN    / AUG 28, 18 / PAGE     9
                                                                                                                                    

                                                                                                                                    

                                                  S O R T E D   B U L K    D A T A    E C H O                                       
                     CARD                                                                                                           
                     COUNT        ---1--- +++2+++ ---3--- +++4+++ ---5--- +++6+++ ---7--- +++8+++ ---9--- +++10+++                  
                  142-        CQUAD4  4588    1417    718     323     88      324                             
                  143-        CQUAD4  4589    1417    87      325     719     323                             
                  144-        CQUAD4  4590    1417    323     719     327     88                              
                  145-        CQUAD4  4591    1417    325     89      326     719                             
                  146-        CQUAD4  4592    1417    719     326     90      327                             
                  147-        CQUAD4  4593    1417    91      328     720     331                             
                  148-        CQUAD4  4594    1417    331     720     330     94                              
                  149-        CQUAD4  4595    1417    328     92      329     720                             
                  150-        CQUAD4  4596    1417    720     329     93      330                             
                  151-        CQUAD4  4597    1417    92      332     721     329                             
                  152-        CQUAD4  4598    1417    329     721     334     93                              
                  153-        CQUAD4  4599    1417    332     95      333     721                             
                  154-        CQUAD4  4600    1417    721     333     96      334                             
                  155-        CQUAD4  4601    1417    95      335     722     333                             
                  156-        CQUAD4  4602    1417    333     722     337     96                              
                  157-        CQUAD4  4603    1417    335     97      336     722                             
                  158-        CQUAD4  4604    1417    722     336     98      337                             
                  159-        CQUAD4  4605    1417    97      338     723     336                             
                  160-        CQUAD4  4606    1417    336     723     340     98                              
                  161-        CQUAD4  4607    1417    338     99      339     723                             
                  162-        CQUAD4  4608    1417    723     339     100     340                             
                  163-        CQUAD4  4609    1417    101     341     724     344                             
                  164-        CQUAD4  4610    1417    344     724     343     104                             
                  165-        CQUAD4  4611    1417    341     102     342     724                             
                  166-        CQUAD4  4612    1417    724     342     103     343                             
                  167-        CQUAD4  4613    1417    102     345     725     342                             
                  168-        CQUAD4  4614    1417    342     725     347     103                             
                  169-        CQUAD4  4615    1417    345     105     346     725                             
                  170-        CQUAD4  4616    1417    725     346     106     347                             
                  171-        CQUAD4  4617    1417    105     348     726     346                             
                  172-        CQUAD4  4618    1417    346     726     350     106                             
                  173-        CQUAD4  4619    1417    348     107     349     726                             
                  174-        CQUAD4  4620    1417    726     349     108     350                             
                  175-        CQUAD4  4621    1417    107     351     727     349                             
                  176-        CQUAD4  4622    1417    349     727     353     108                             
                  177-        CQUAD4  4623    1417    351     109     352     727                             
                  178-        CQUAD4  4624    1417    727     352     110     353                             
                  179-        CQUAD4  4625    1417    111     354     728     357                             
                  180-        CQUAD4  4626    1417    357     728     356     114                             
                  181-        CQUAD4  4627    1417    354     112     355     728                             
                  182-        CQUAD4  4628    1417    728     355     113     356                             
                  183-        CQUAD4  4629    1417    112     358     729     355                             
                  184-        CQUAD4  4630    1417    355     729     360     113                             
                  185-        CQUAD4  4631    1417    358     115     359     729                             
                  186-        CQUAD4  4632    1417    729     359     116     360                             
                  187-        CQUAD4  4633    1417    115     361     730     359                             
                  188-        CQUAD4  4634    1417    359     730     363     116                             
1     CRM_Wing Full Model Modal                                             /    95 INTEL LINUX NASTRAN    / AUG 28, 18 / PAGE    10
                                                                                                                                    

                                                                                                                                    

                                                  S O R T E D   B U L K    D A T A    E C H O                                       
                     CARD                                                                                                           
                     COUNT        ---1--- +++2+++ ---3--- +++4+++ ---5--- +++6+++ ---7--- +++8+++ ---9--- +++10+++                  
                  189-        CQUAD4  4635    1417    361     117     362     730                             
                  190-        CQUAD4  4636    1417    730     362     118     363                             
                  191-        CQUAD4  4637    1417    117     364     731     362                             
                  192-        CQUAD4  4638    1417    362     731     366     118                             
                  193-        CQUAD4  4639    1417    364     119     365     731                             
                  194-        CQUAD4  4640    1417    731     365     120     366                             
                  195-        CQUAD4  4641    1417    121     367     732     370                             
                  196-        CQUAD4  4642    1417    370     732     369     124                             
                  197-        CQUAD4  4643    1417    367     122     368     732                             
                  198-        CQUAD4  4644    1417    732     368     123     369                             
                  199-        CQUAD4  4645    1417    122     371     733     368                             
                  200-        CQUAD4  4646    1417    368     733     373     123                             
                  201-        CQUAD4  4647    1417    371     125     372     733                             
                  202-        CQUAD4  4648    1417    733     372     126     373                             
                  203-        CQUAD4  4649    1417    125     374     734     372                             
                  204-        CQUAD4  4650    1417    372     734     376     126                             
                  205-        CQUAD4  4651    1417    374     127     375     734                             
                  206-        CQUAD4  4652    1417    734     375     128     376                             
                  207-        CQUAD4  4653    1417    127     377     735     375                             
                  208-        CQUAD4  4654    1417    375     735     379     128                             
                  209-        CQUAD4  4655    1417    377     129     378     735                             
                  210-        CQUAD4  4656    1417    735     378     130     379                             
                  211-        CQUAD4  4657    1417    131     380     736     383                             
                  212-        CQUAD4  4658    1417    383     736     382     134                             
                  213-        CQUAD4  4659    1417    380     132     381     736                             
                  214-        CQUAD4  4660    1417    736     381     133     382                             
                  215-        CQUAD4  4661    1417    132     384     737     381                             
                  216-        CQUAD4  4662    1417    381     737     386     133                             
                  217-        CQUAD4  4663    1417    384     135     385     737                             
                  218-        CQUAD4  4664    1417    737     385     136     386                             
                  219-        CQUAD4  4665    1417    135     387     738     385                             
                  220-        CQUAD4  4666    1417    385     738     389     136                             
                  221-        CQUAD4  4667    1417    387     137     388     738                             
                  222-        CQUAD4  4668    1417    738     388     138     389                             
                  223-        CQUAD4  4669    1417    137     390     739     388                             
                  224-        CQUAD4  4670    1417    388     739     392     138                             
                  225-        CQUAD4  4671    1417    390     139     391     739                             
                  226-        CQUAD4  4672    1417    739     391     140     392                             
                  227-        CQUAD4  4673    1417    141     393     740     396                             
                  228-        CQUAD4  4674    1417    396     740     395     144                             
                  229-        CQUAD4  4675    1417    393     142     394     740                             
                  230-        CQUAD4  4676    1417    740     394     143     395                             
                  231-        CQUAD4  4677    1417    142     397     741     394                             
                  232-        CQUAD4  4678    1417    394     741     399     143                             
                  233-        CQUAD4  4679    1417    397     145     398     741                             
                  234-        CQUAD4  4680    1417    741     398     146     399                             
                  235-        CQUAD4  4681    1417    145     400     742     398                             
1     CRM_Wing Full Model Modal                                             /    95 INTEL LINUX NASTRAN    / AUG 28, 18 / PAGE    11
                                                                                                                                    

                                                                                                                                    

                                                  S O R T E D   B U L K    D A T A    E C H O                                       
                     CARD                                                                                                           
                     COUNT        ---1--- +++2+++ ---3--- +++4+++ ---5--- +++6+++ ---7--- +++8+++ ---9--- +++10+++                  
                  236-        CQUAD4  4682    1417    398     742     402     146                             
                  237-        CQUAD4  4683    1417    400     147     401     742                             
                  238-        CQUAD4  4684    1417    742     401     148     402                             
                  239-        CQUAD4  4685    1417    147     403     743     401                             
                  240-        CQUAD4  4686    1417    401     743     405     148                             
                  241-        CQUAD4  4687    1417    403     149     404     743                             
                  242-        CQUAD4  4688    1417    743     404     150     405                             
                  243-        CQUAD4  4689    1417    151     406     744     409                             
                  244-        CQUAD4  4690    1417    409     744     408     154                             
                  245-        CQUAD4  4691    1417    406     152     407     744                             
                  246-        CQUAD4  4692    1417    744     407     153     408                             
                  247-        CQUAD4  4693    1417    152     410     745     407                             
                  248-        CQUAD4  4694    1417    407     745     412     153                             
                  249-        CQUAD4  4695    1417    410     155     411     745                             
                  250-        CQUAD4  4696    1417    745     411     156     412                             
                  251-        CQUAD4  4697    1417    155     413     746     411                             
                  252-        CQUAD4  4698    1417    411     746     415     156                             
                  253-        CQUAD4  4699    1417    413     157     414     746                             
                  254-        CQUAD4  4700    1417    746     414     158     415                             
                  255-        CQUAD4  4701    1417    157     416     747     414                             
                  256-        CQUAD4  4702    1417    414     747     418     158                             
                  257-        CQUAD4  4703    1417    416     159     417     747                             
                  258-        CQUAD4  4704    1417    747     417     160     418                             
                  259-        CQUAD4  4705    1417    161     419     748     422                             
                  260-        CQUAD4  4706    1417    422     748     421     164                             
                  261-        CQUAD4  4707    1417    419     162     420     748                             
                  262-        CQUAD4  4708    1417    748     420     163     421                             
                  263-        CQUAD4  4709    1417    162     423     749     420                             
                  264-        CQUAD4  4710    1417    420     749     425     163                             
                  265-        CQUAD4  4711    1417    423     165     424     749                             
                  266-        CQUAD4  4712    1417    749     424     166     425                             
                  267-        CQUAD4  4713    1417    165     426     750     424                             
                  268-        CQUAD4  4714    1417    424     750     428     166                             
                  269-        CQUAD4  4715    1417    426     167     427     750                             
                  270-        CQUAD4  4716    1417    750     427     168     428                             
                  271-        CQUAD4  4717    1417    167     429     751     427                             
                  272-        CQUAD4  4718    1417    427     751     431     168                             
                  273-        CQUAD4  4719    1417    429     169     430     751                             
                  274-        CQUAD4  4720    1417    751     430     170     431                             
                  275-        CQUAD4  4721    1417    171     432     752     435                             
                  276-        CQUAD4  4722    1417    435     752     434     174                             
                  277-        CQUAD4  4723    1417    432     172     433     752                             
                  278-        CQUAD4  4724    1417    752     433     173     434                             
                  279-        CQUAD4  4725    1417    172     436     753     433                             
                  280-        CQUAD4  4726    1417    433     753     438     173                             
                  281-        CQUAD4  4727    1417    436     175     437     753                             
                  282-        CQUAD4  4728    1417    753     437     176     438                             
1     CRM_Wing Full Model Modal                                             /    95 INTEL LINUX NASTRAN    / AUG 28, 18 / PAGE    12
                                                                                                                                    

                                                                                                                                    

                                                  S O R T E D   B U L K    D A T A    E C H O                                       
                     CARD                                                                                                           
                     COUNT        ---1--- +++2+++ ---3--- +++4+++ ---5--- +++6+++ ---7--- +++8+++ ---9--- +++10+++                  
                  283-        CQUAD4  4729    1417    175     439     754     437                             
                  284-        CQUAD4  4730    1417    437     754     441     176                             
                  285-        CQUAD4  4731    1417    439     177     440     754                             
                  286-        CQUAD4  4732    1417    754     440     178     441                             
                  287-        CQUAD4  4733    1417    177     442     755     440                             
                  288-        CQUAD4  4734    1417    440     755     444     178                             
                  289-        CQUAD4  4735    1417    442     179     443     755                             
                  290-        CQUAD4  4736    1417    755     443     180     444                             
                  291-        CQUAD4  4737    1417    181     445     756     448                             
                  292-        CQUAD4  4738    1417    448     756     447     184                             
                  293-        CQUAD4  4739    1417    445     182     446     756                             
                  294-        CQUAD4  4740    1417    756     446     183     447                             
                  295-        CQUAD4  4741    1417    182     449     757     446                             
                  296-        CQUAD4  4742    1417    446     757     451     183                             
                  297-        CQUAD4  4743    1417    449     185     450     757                             
                  298-        CQUAD4  4744    1417    757     450     186     451                             
                  299-        CQUAD4  4745    1417    185     452     758     450                             
                  300-        CQUAD4  4746    1417    450     758     454     186                             
                  301-        CQUAD4  4747    1417    452     187     453     758                             
                  302-        CQUAD4  4748    1417    758     453     188     454                             
                  303-        CQUAD4  4749    1417    187     455     759     453                             
                  304-        CQUAD4  4750    1417    453     759     457     188                             
                  305-        CQUAD4  4751    1417    455     189     456     759                             
                  306-        CQUAD4  4752    1417    759     456     190     457                             
                  307-        CQUAD4  4753    1417    191     458     760     461                             
                  308-        CQUAD4  4754    1417    461     760     460     194                             
                  309-        CQUAD4  4755    1417    458     192     459     760                             
                  310-        CQUAD4  4756    1417    760     459     193     460                             
                  311-        CQUAD4  4757    1417    192     462     761     459                             
                  312-        CQUAD4  4758    1417    459     761     464     193                             
                  313-        CQUAD4  4759    1417    462     195     463     761                             
                  314-        CQUAD4  4760    1417    761     463     196     464                             
                  315-        CQUAD4  4761    1417    195     465     762     463                             
                  316-        CQUAD4  4762    1417    463     762     467     196                             
                  317-        CQUAD4  4763    1417    465     197     466     762                             
                  318-        CQUAD4  4764    1417    762     466     198     467                             
                  319-        CQUAD4  4765    1417    197     468     763     466                             
                  320-        CQUAD4  4766    1417    466     763     470     198                             
                  321-        CQUAD4  4767    1417    468     199     469     763                             
                  322-        CQUAD4  4768    1417    763     469     200     470                             
                  323-        CQUAD4  4769    1417    201     471     764     474                             
                  324-        CQUAD4  4770    1417    474     764     473     204                             
                  325-        CQUAD4  4771    1417    471     202     472     764                             
                  326-        CQUAD4  4772    1417    764     472     203     473                             
                  327-        CQUAD4  4773    1417    202     475     765     472                             
                  328-        CQUAD4  4774    1417    472     765     477     203                             
                  329-        CQUAD4  4775    1417    475     205     476     765                             
1     CRM_Wing Full Model Modal                                             /    95 INTEL LINUX NASTRAN    / AUG 28, 18 / PAGE    13
                                                                                                                                    

                                                                                                                                    

                                                  S O R T E D   B U L K    D A T A    E C H O                                       
                     CARD                                                                                                           
                     COUNT        ---1--- +++2+++ ---3--- +++4+++ ---5--- +++6+++ ---7--- +++8+++ ---9--- +++10+++                  
                  330-        CQUAD4  4776    1417    765     476     206     477                             
                  331-        CQUAD4  4777    1417    205     478     766     476                             
                  332-        CQUAD4  4778    1417    476     766     480     206                             
                  333-        CQUAD4  4779    1417    478     207     479     766                             
                  334-        CQUAD4  4780    1417    766     479     208     480                             
                  335-        CQUAD4  4781    1417    207     481     767     479                             
                  336-        CQUAD4  4782    1417    479     767     483     208                             
                  337-        CQUAD4  4783    1417    481     209     482     767                             
                  338-        CQUAD4  4784    1417    767     482     210     483                             
                  339-        CQUAD4  4785    1418    13      226     768     485                             
                  340-        CQUAD4  4786    1418    485     768     213     3                               
                  341-        CQUAD4  4787    1418    226     14      484     768                             
                  342-        CQUAD4  4788    1418    768     484     4       213                             
                  343-        CQUAD4  4789    1418    1       486     769     211                             
                  344-        CQUAD4  4790    1418    211     769     487     2                               
                  345-        CQUAD4  4791    1418    486     11      224     769                             
                  346-        CQUAD4  4792    1418    769     224     12      487                             
                  347-        CQUAD4  4793    1418    16      230     770     488                             
                  348-        CQUAD4  4794    1418    488     770     217     6                               
                  349-        CQUAD4  4795    1418    230     13      485     770                             
                  350-        CQUAD4  4796    1418    770     485     3       217                             
                  351-        CQUAD4  4797    1418    2       487     771     215                             
                  352-        CQUAD4  4798    1418    215     771     489     5                               
                  353-        CQUAD4  4799    1418    487     12      228     771                             
                  354-        CQUAD4  4800    1418    771     228     15      489                             
                  355-        CQUAD4  4801    1418    18      233     772     490                             
                  356-        CQUAD4  4802    1418    490     772     220     8                               
                  357-        CQUAD4  4803    1418    233     16      488     772                             
                  358-        CQUAD4  4804    1418    772     488     6       220                             
                  359-        CQUAD4  4805    1418    17      231     773     491                             
                  360-        CQUAD4  4806    1418    491     773     218     7                               
                  361-        CQUAD4  4807    1418    231     15      489     773                             
                  362-        CQUAD4  4808    1418    773     489     5       218                             
                  363-        CQUAD4  4809    1418    8       490     774     223                             
                  364-        CQUAD4  4810    1418    223     774     492     10                              
                  365-        CQUAD4  4811    1418    490     18      236     774                             
                  366-        CQUAD4  4812    1418    774     236     20      492                             
                  367-        CQUAD4  4813    1418    19      234     775     493                             
                  368-        CQUAD4  4814    1418    493     775     221     9                               
                  369-        CQUAD4  4815    1418    234     17      491     775                             
                  370-        CQUAD4  4816    1418    775     491     7       221                             
                  371-        CQUAD4  4817    1418    23      239     776     495                             
                  372-        CQUAD4  4818    1418    495     776     226     13                              
                  373-        CQUAD4  4819    1418    239     24      494     776                             
                  374-        CQUAD4  4820    1418    776     494     14      226                             
                  375-        CQUAD4  4821    1418    22      237     777     497                             
                  376-        CQUAD4  4822    1418    497     777     224     12                              
1     CRM_Wing Full Model Modal                                             /    95 INTEL LINUX NASTRAN    / AUG 28, 18 / PAGE    14
                                                                                                                                    

                                                                                                                                    

                                                  S O R T E D   B U L K    D A T A    E C H O                                       
                     CARD                                                                                                           
                     COUNT        ---1--- +++2+++ ---3--- +++4+++ ---5--- +++6+++ ---7--- +++8+++ ---9--- +++10+++                  
                  377-        CQUAD4  4823    1418    237     21      496     777                             
                  378-        CQUAD4  4824    1418    777     496     11      224                             
                  379-        CQUAD4  4825    1418    26      243     778     498                             
                  380-        CQUAD4  4826    1418    498     778     230     16                              
                  381-        CQUAD4  4827    1418    243     23      495     778                             
                  382-        CQUAD4  4828    1418    778     495     13      230                             
                  383-        CQUAD4  4829    1418    25      241     779     499                             
                  384-        CQUAD4  4830    1418    499     779     228     15                              
                  385-        CQUAD4  4831    1418    241     22      497     779                             
                  386-        CQUAD4  4832    1418    779     497     12      228                             
                  387-        CQUAD4  4833    1418    28      246     780     500                             
                  388-        CQUAD4  4834    1418    500     780     233     18                              
                  389-        CQUAD4  4835    1418    246     26      498     780                             
                  390-        CQUAD4  4836    1418    780     498     16      233                             
                  391-        CQUAD4  4837    1418    27      244     781     501                             
                  392-        CQUAD4  4838    1418    501     781     231     17                              
                  393-        CQUAD4  4839    1418    244     25      499     781                             
                  394-        CQUAD4  4840    1418    781     499     15      231                             
                  395-        CQUAD4  4841    1418    18      500     782     236                             
                  396-        CQUAD4  4842    1418    236     782     502     20                              
                  397-        CQUAD4  4843    1418    500     28      249     782                             
                  398-        CQUAD4  4844    1418    782     249     30      502                             
                  399-        CQUAD4  4845    1418    29      247     783     503                             
                  400-        CQUAD4  4846    1418    503     783     234     19                              
                  401-        CQUAD4  4847    1418    247     27      501     783                             
                  402-        CQUAD4  4848    1418    783     501     17      234                             
                  403-        CQUAD4  4849    1418    33      252     784     505                             
                  404-        CQUAD4  4850    1418    505     784     239     23                              
                  405-        CQUAD4  4851    1418    252     34      504     784                             
                  406-        CQUAD4  4852    1418    784     504     24      239                             
                  407-        CQUAD4  4853    1418    21      506     785     237                             
                  408-        CQUAD4  4854    1418    237     785     507     22                              
                  409-        CQUAD4  4855    1418    506     31      250     785                             
                  410-        CQUAD4  4856    1418    785     250     32      507                             
                  411-        CQUAD4  4857    1418    36      256     786     508                             
                  412-        CQUAD4  4858    1418    508     786     243     26                              
                  413-        CQUAD4  4859    1418    256     33      505     786                             
                  414-        CQUAD4  4860    1418    786     505     23      243                             
                  415-        CQUAD4  4861    1418    35      254     787     509                             
                  416-        CQUAD4  4862    1418    509     787     241     25                              
                  417-        CQUAD4  4863    1418    254     32      507     787                             
                  418-        CQUAD4  4864    1418    787     507     22      241                             
                  419-        CQUAD4  4865    1418    38      259     788     510                             
                  420-        CQUAD4  4866    1418    510     788     246     28                              
                  421-        CQUAD4  4867    1418    259     36      508     788                             
                  422-        CQUAD4  4868    1418    788     508     26      246                             
                  423-        CQUAD4  4869    1418    37      257     789     511                             
1     CRM_Wing Full Model Modal                                             /    95 INTEL LINUX NASTRAN    / AUG 28, 18 / PAGE    15
                                                                                                                                    

                                                                                                                                    

                                                  S O R T E D   B U L K    D A T A    E C H O                                       
                     CARD                                                                                                           
                     COUNT        ---1--- +++2+++ ---3--- +++4+++ ---5--- +++6+++ ---7--- +++8+++ ---9--- +++10+++                  
                  424-        CQUAD4  4870    1418    511     789     244     27                              
                  425-        CQUAD4  4871    1418    257     35      509     789                             
                  426-        CQUAD4  4872    1418    789     509     25      244                             
                  427-        CQUAD4  4873    1418    40      262     790     512                             
                  428-        CQUAD4  4874    1418    512     790     249     30                              
                  429-        CQUAD4  4875    1418    262     38      510     790                             
                  430-        CQUAD4  4876    1418    790     510     28      249                             
                  431-        CQUAD4  4877    1418    39      260     791     513                             
                  432-        CQUAD4  4878    1418    513     791     247     29                              
                  433-        CQUAD4  4879    1418    260     37      511     791                             
                  434-        CQUAD4  4880    1418    791     511     27      247                             
                  435-        CQUAD4  4881    1418    34      514     792     252                             
                  436-        CQUAD4  4882    1418    252     792     515     33                              
                  437-        CQUAD4  4883    1418    514     44      265     792                             
                  438-        CQUAD4  4884    1418    792     265     43      515                             
                  439-        CQUAD4  4885    1418    31      516     793     250                             
                  440-        CQUAD4  4886    1418    250     793     517     32                              
                  441-        CQUAD4  4887    1418    516     41      263     793                             
                  442-        CQUAD4  4888    1418    793     263     42      517                             
                  443-        CQUAD4  4889    1418    46      269     794     518                             
                  444-        CQUAD4  4890    1418    518     794     256     36                              
                  445-        CQUAD4  4891    1418    269     43      515     794                             
                  446-        CQUAD4  4892    1418    794     515     33      256                             
                  447-        CQUAD4  4893    1418    45      267     795     519                             
                  448-        CQUAD4  4894    1418    519     795     254     35                              
                  449-        CQUAD4  4895    1418    267     42      517     795                             
                  450-        CQUAD4  4896    1418    795     517     32      254                             
                  451-        CQUAD4  4897    1418    48      272     796     520                             
                  452-        CQUAD4  4898    1418    520     796     259     38                              
                  453-        CQUAD4  4899    1418    272     46      518     796                             
                  454-        CQUAD4  4900    1418    796     518     36      259                             
                  455-        CQUAD4  4901    1418    47      270     797     521                             
                  456-        CQUAD4  4902    1418    521     797     257     37                              
                  457-        CQUAD4  4903    1418    270     45      519     797                             
                  458-        CQUAD4  4904    1418    797     519     35      257                             
                  459-        CQUAD4  4905    1418    50      275     798     522                             
                  460-        CQUAD4  4906    1418    522     798     262     40                              
                  461-        CQUAD4  4907    1418    275     48      520     798                             
                  462-        CQUAD4  4908    1418    798     520     38      262                             
                  463-        CQUAD4  4909    1418    49      273     799     523                             
                  464-        CQUAD4  4910    1418    523     799     260     39                              
                  465-        CQUAD4  4911    1418    273     47      521     799                             
                  466-        CQUAD4  4912    1418    799     521     37      260                             
                  467-        CQUAD4  4913    1418    53      278     800     525                             
                  468-        CQUAD4  4914    1418    525     800     265     43                              
                  469-        CQUAD4  4915    1418    278     54      524     800                             
                  470-        CQUAD4  4916    1418    800     524     44      265                             
1     CRM_Wing Full Model Modal                                             /    95 INTEL LINUX NASTRAN    / AUG 28, 18 / PAGE    16
                                                                                                                                    

                                                                                                                                    

                                                  S O R T E D   B U L K    D A T A    E C H O                                       
                     CARD                                                                                                           
                     COUNT        ---1--- +++2+++ ---3--- +++4+++ ---5--- +++6+++ ---7--- +++8+++ ---9--- +++10+++                  
                  471-        CQUAD4  4917    1418    41      526     801     263                             
                  472-        CQUAD4  4918    1418    263     801     527     42                              
                  473-        CQUAD4  4919    1418    526     51      276     801                             
                  474-        CQUAD4  4920    1418    801     276     52      527                             
                  475-        CQUAD4  4921    1418    56      282     802     528                             
                  476-        CQUAD4  4922    1418    528     802     269     46                              
                  477-        CQUAD4  4923    1418    282     53      525     802                             
                  478-        CQUAD4  4924    1418    802     525     43      269                             
                  479-        CQUAD4  4925    1418    55      280     803     529                             
                  480-        CQUAD4  4926    1418    529     803     267     45                              
                  481-        CQUAD4  4927    1418    280     52      527     803                             
                  482-        CQUAD4  4928    1418    803     527     42      267                             
                  483-        CQUAD4  4929    1418    46      528     804     272                             
                  484-        CQUAD4  4930    1418    272     804     530     48                              
                  485-        CQUAD4  4931    1418    528     56      285     804                             
                  486-        CQUAD4  4932    1418    804     285     58      530                             
                  487-        CQUAD4  4933    1418    57      283     805     531                             
                  488-        CQUAD4  4934    1418    531     805     270     47                              
                  489-        CQUAD4  4935    1418    283     55      529     805                             
                  490-        CQUAD4  4936    1418    805     529     45      270                             
                  491-        CQUAD4  4937    1418    60      288     806     532                             
                  492-        CQUAD4  4938    1418    532     806     275     50                              
                  493-        CQUAD4  4939    1418    288     58      530     806                             
                  494-        CQUAD4  4940    1418    806     530     48      275                             
                  495-        CQUAD4  4941    1418    59      286     807     533                             
                  496-        CQUAD4  4942    1418    533     807     273     49                              
                  497-        CQUAD4  4943    1418    286     57      531     807                             
                  498-        CQUAD4  4944    1418    807     531     47      273                             
                  499-        CQUAD4  4945    1419    63      291     808     535                             
                  500-        CQUAD4  4946    1419    535     808     278     53                              
                  501-        CQUAD4  4947    1419    291     64      534     808                             
                  502-        CQUAD4  4948    1419    808     534     54      278                             
                  503-        CQUAD4  4949    1419    62      289     809     537                             
                  504-        CQUAD4  4950    1419    537     809     276     52                              
                  505-        CQUAD4  4951    1419    289     61      536     809                             
                  506-        CQUAD4  4952    1419    809     536     51      276                             
                  507-        CQUAD4  4953    1419    66      295     810     538                             
                  508-        CQUAD4  4954    1419    538     810     282     56                              
                  509-        CQUAD4  4955    1419    295     63      535     810                             
                  510-        CQUAD4  4956    1419    810     535     53      282                             
                  511-        CQUAD4  4957    1419    65      293     811     539                             
                  512-        CQUAD4  4958    1419    539     811     280     55                              
                  513-        CQUAD4  4959    1419    293     62      537     811                             
                  514-        CQUAD4  4960    1419    811     537     52      280                             
                  515-        CQUAD4  4961    1419    56      538     812     285                             
                  516-        CQUAD4  4962    1419    285     812     540     58                              
                  517-        CQUAD4  4963    1419    538     66      298     812                             
1     CRM_Wing Full Model Modal                                             /    95 INTEL LINUX NASTRAN    / AUG 28, 18 / PAGE    17
                                                                                                                                    

                                                                                                                                    

                                                  S O R T E D   B U L K    D A T A    E C H O                                       
                     CARD                                                                                                           
                     COUNT        ---1--- +++2+++ ---3--- +++4+++ ---5--- +++6+++ ---7--- +++8+++ ---9--- +++10+++                  
                  518-        CQUAD4  4964    1419    812     298     68      540                             
                  519-        CQUAD4  4965    1419    67      296     813     541                             
                  520-        CQUAD4  4966    1419    541     813     283     57                              
                  521-        CQUAD4  4967    1419    296     65      539     813                             
                  522-        CQUAD4  4968    1419    813     539     55      283                             
                  523-        CQUAD4  4969    1419    70      301     814     542                             
                  524-        CQUAD4  4970    1419    542     814     288     60                              
                  525-        CQUAD4  4971    1419    301     68      540     814                             
                  526-        CQUAD4  4972    1419    814     540     58      288                             
                  527-        CQUAD4  4973    1419    69      299     815     543                             
                  528-        CQUAD4  4974    1419    543     815     286     59                              
                  529-        CQUAD4  4975    1419    299     67      541     815                             
                  530-        CQUAD4  4976    1419    815     541     57      286                             
                  531-        CQUAD4  4977    1419    73      304     816     545                             
                  532-        CQUAD4  4978    1419    545     816     291     63                              
                  533-        CQUAD4  4979    1419    304     74      544     816                             
                  534-        CQUAD4  4980    1419    816     544     64      291                             
                  535-        CQUAD4  4981    1419    72      302     817     547                             
                  536-        CQUAD4  4982    1419    547     817     289     62                              
                  537-        CQUAD4  4983    1419    302     71      546     817                             
                  538-        CQUAD4  4984    1419    817     546     61      289                             
                  539-        CQUAD4  4985    1419    63      545     818     295                             
                  540-        CQUAD4  4986    1419    295     818     548     66                              
                  541-        CQUAD4  4987    1419    545     73      308     818                             
                  542-        CQUAD4  4988    1419    818     308     76      548                             
                  543-        CQUAD4  4989    1419    75      306     819     549                             
                  544-        CQUAD4  4990    1419    549     819     293     65                              
                  545-        CQUAD4  4991    1419    306     72      547     819                             
                  546-        CQUAD4  4992    1419    819     547     62      293                             
                  547-        CQUAD4  4993    1419    78      311     820     550                             
                  548-        CQUAD4  4994    1419    550     820     298     68                              
                  549-        CQUAD4  4995    1419    311     76      548     820                             
                  550-        CQUAD4  4996    1419    820     548     66      298                             
                  551-        CQUAD4  4997    1419    77      309     821     551                             
                  552-        CQUAD4  4998    1419    551     821     296     67                              
                  553-        CQUAD4  4999    1419    309     75      549     821                             
                  554-        CQUAD4  5000    1419    821     549     65      296                             
                  555-        CQUAD4  5001    1419    80      314     822     552                             
                  556-        CQUAD4  5002    1419    552     822     301     70                              
                  557-        CQUAD4  5003    1419    314     78      550     822                             
                  558-        CQUAD4  5004    1419    822     550     68      301                             
                  559-        CQUAD4  5005    1419    67      551     823     299                             
                  560-        CQUAD4  5006    1419    299     823     553     69                              
                  561-        CQUAD4  5007    1419    551     77      312     823                             
                  562-        CQUAD4  5008    1419    823     312     79      553                             
                  563-        CQUAD4  5009    1419    83      317     824     555                             
                  564-        CQUAD4  5010    1419    555     824     304     73                              
1     CRM_Wing Full Model Modal                                             /    95 INTEL LINUX NASTRAN    / AUG 28, 18 / PAGE    18
[...]
                ***                                                                                             ***
                *  7.21987509D+03  9.70739060D-15  4.82864929D-17 -1.49888466D-16  1.85894761D-02 -7.02111691D+04 *
                *  1.22743824D-14  7.21987509D+03 -2.50336829D-16 -1.85894761D-02 -4.53529994D-15  2.17281112D+04 *
                *  1.25120804D-16 -4.11473703D-16  7.21987509D+03  7.02111691D+04 -2.17281112D+04  2.15041627D-15 *
                * -3.45767759D-16 -1.85894761D-02  7.02111691D+04  1.06050087D+06 -1.65051447D+05 -5.65901647D-02 *
                *  1.85894761D-02 -2.19826201D-15 -2.17281112D+04 -1.65051447D+05  9.04574642D+04 -1.70317614D-01 *
                * -7.02111691D+04  2.17281112D+04  5.07880191D-15 -5.65901647D-02 -1.70317614D-01  1.15070042D+06 *
                ***                                                                                             ***
                                        S - TRANSFORMATION MATRIX FOR SCALAR MASS PARTITION
                                        ***                                             ***
                                        *  1.00000000D+00  0.00000000D+00  0.00000000D+00 *
                                        *  0.00000000D+00  1.00000000D+00  0.00000000D+00 *
                                        *  0.00000000D+00  0.00000000D+00  1.00000000D+00 *
                                        ***                                             ***
                         DIRECTION
                    MASS AXIS SYSTEM (S)       MASS                 X-C.G.           Y-C.G.           Z-C.G.
                            X            7.219875094D+03     -2.076053457D-20  9.724706893D+00  2.574764223D-06
                            Y            7.219875094D+03      3.009485752D+00 -6.281687541D-19  2.574764223D-06
                            Z            7.219875094D+03      3.009485752D+00  9.724706893D+00  2.978467412D-19

                                                 I(S) - INERTIAS RELATIVE TO C.G. 
                                      ***                                                 ***
                                      *  3.777178258D+05 -4.624806576D+04  6.454013077D-04  *
                                      * -4.624806576D+04  2.506702304D+04 -1.045959258D-02  *
                                      *  6.454013077D-04 -1.045959258D-02  4.025269360D+05  *
                                      ***                                                 ***
                                                      I(Q) - PRINCIPAL INERTIAS
                                      ***                                                 ***
                                      *  3.836821135D+05                                    *
                                      *                   1.910273531D+04                   *
                                      *                                    4.025269360D+05  *
                                      ***                                                 ***
                                            Q - TRANSFORMATION MATRIX - I(Q) = QT*I(S)*Q
                                      ***                                                 ***
                                      *  9.917865866D-01  1.279037400D-01  0.000000000D+00  *
                                      * -1.279037400D-01  9.917865866D-01  0.000000000D+00  *
                                      *  0.000000000D+00  0.000000000D+00  1.000000000D+00  *
                                      ***                                                 ***
0*** USER INFORMATION MESSAGE 2435, AT USER'S REQUEST, ALL POTENTIAL SINGULARITIES HAVE BEEN REMOVED BY THE
     APPLICATION OF SINGLE POINT CONSTRAINTS.  REFER TO PRINTOUT OF AUTOMATICALLY GENERATED SPC1 CARDS FOR DETAILS.
1     CRM_Wing Full Model Modal                                             /    95 INTEL LINUX NASTRAN    / AUG 28, 18 / PAGE    66
                                                                                                                                    
0                                                                                                                                   


                                A U T O M A T I C A L L Y   G E N E R A T E D   S P C 1   C A R D S
                CARD 
                COUNT        ---1--- +++2+++ ---3--- +++4+++ ---5--- +++6+++ ---7--- +++8+++ ---9--- +++10+++

                   1-        SPC1         101       4     225     232     238     245     251     258
                   2-        SPC1         101       4     264     271     277     284     290     297
                   3-        SPC1         101       4     303     310     316     323     329     336
                   4-        SPC1         101       4     342     349     355     362     368     375
                   5-        SPC1         101       4     381     388     394     401     407     414
                   6-        SPC1         101       4     420     427     433     440     446     453
                   7-        SPC1         101       4     459     466     472     479     688     689
                   8-        SPC1         101       4     690     691     692     693     694     695
                   9-        SPC1         101       4     696     697     698     699     700     701
                  10-        SPC1         101       4     702     703     704     705     706     707
                  11-        SPC1         101       4     708     709     710     711     712     713
                  12-        SPC1         101       4     714     715     716     717     718     719
                  13-        SPC1         101       4     720     721     722     723     724     725
                  14-        SPC1         101       4     726     727     728     729     730     731
                  15-        SPC1         101       4     732     733     734     735     736     737
                  16-        SPC1         101       4     738     739     740     741     742     743
                  17-        SPC1         101       4     744     745     746     747     748     749
                  18-        SPC1         101       4     750     751     752     753     754     755
                  19-        SPC1         101       4     756     757     758     759     760     761
                  20-        SPC1         101       4     762     763     764     765     766     767
                  21-        SPC1         101       5     928     929     930     931     932     933
                  22-        SPC1         101       5     934     935     936     937     938     939
                  23-        SPC1         101       5     940     941     942     943     944     945
                  24-        SPC1         101       5     946     947     948     949     950     951
                  25-        SPC1         101       5     952     953     954     955     956     957
                  26-        SPC1         101       5     958     959     960     961     962     963
                  27-        SPC1         101       5     964     965     966     967     968     969
                  28-        SPC1         101       5     970     971     972     973     974     975
                  29-        SPC1         101       5     976     977     978     979     980     981
                  30-        SPC1         101       5     982     983     984     985     986     987
                  31-        SPC1         101       6     485     487     490     491     495     497
                  32-        SPC1         101       6     500     501     505     507     510     511
                  33-        SPC1         101       6     515     517     520     521     525     527
                  34-        SPC1         101       6     530     531     535     537     540     541
                  35-        SPC1         101       6     545     547     550     551     555     557
                  36-        SPC1         101       6     560     561     565     567     570     571
                  37-        SPC1         101       6     575     577     580     581     585     587
                  38-        SPC1         101       6     590     591     595     597     600     601
                  39-        SPC1         101       6     605     607     610     611     615     617
                  40-        SPC1         101       6     620     621     625     627     630     631
                  41-        SPC1         101       6     635     637     640     641     645     647
                  42-        SPC1         101       6     650     651     655     657     660     661
                  43-        SPC1         101       6     665     667     670     671     675     677
                  44-        SPC1         101       6     680     681     768     769     770     771
                  45-        SPC1         101       6     772     773     774     775     776     777
                  46-        SPC1         101       6     778     779     780     781     782     783
1     CRM_Wing Full Model Modal                                             /    95 INTEL LINUX NASTRAN    / AUG 28, 18 / PAGE    67
                                                                                                                                    
0                                                                                                                                   


                                A U T O M A T I C A L L Y   G E N E R A T E D   S P C 1   C A R D S
                CARD 
                COUNT        ---1--- +++2+++ ---3--- +++4+++ ---5--- +++6+++ ---7--- +++8+++ ---9--- +++10+++

                  47-        SPC1         101       6     784     785     786     787     788     789
                  48-        SPC1         101       6     790     791     792     793     794     795
                  49-        SPC1         101       6     796     797     798     799     800     801
                  50-        SPC1         101       6     802     803     804     805     806     807
                  51-        SPC1         101       6     808     809     810     811     812     813
                  52-        SPC1         101       6     814     815     816     817     818     819
                  53-        SPC1         101       6     820     821     822     823     824     825
                  54-        SPC1         101       6     826     827     828     829     830     831
                  55-        SPC1         101       6     832     833     834     835     836     837
                  56-        SPC1         101       6     838     839     840     841     842     843
                  57-        SPC1         101       6     844     845     846     847     848     849
                  58-        SPC1         101       6     850     851     852     853     854     855
                  59-        SPC1         101       6     856     857     858     859     860     861
                  60-        SPC1         101       6     862     863     864     865     866     867
                  61-        SPC1         101       6     868     869     870     871     872     873
                  62-        SPC1         101       6     874     875     876     877     878     879
                  63-        SPC1         101       6     880     881     882     883     884     885
                  64-        SPC1         101       6     886     887     888     889     890     891
                  65-        SPC1         101       6     892     893     894     895     896     897
                  66-        SPC1         101       6     898     899     900     901     902     903
                  67-        SPC1         101       6     904     905     906     907     908     909
                  68-        SPC1         101       6     910     911     912     913     914     915
                  69-        SPC1         101       6     916     917     918     919     920     921
                  70-        SPC1         101       6     922     923     924     925     926     927
                        0 ROOTS BELOW   3.947842E-01
0*** USER WARNING MESSAGE 2399
     ONLY THE FIRST   10 EIGENSOLUTIONS CLOSEST TO THE SHIFT POINT (F1 OR ZERO) PASS THE FEER ACCURACY TEST FOR EIGENVECTORS.
1     CRM_Wing Full Model Modal                                             /    95 INTEL LINUX NASTRAN    / AUG 28, 18 / PAGE    68
                                                                                                                                    

                                                                                                                                    




0*** USER INFORMATION MESSAGE 2392
       20 MORE ACCURATE EIGENSOLUTIONS THAN THE   10 REQUESTED HAVE BEEN FOUND.
     USE DIAG 16 TO DETERMINE ERROR BOUNDS
1     CRM_Wing Full Model Modal                                             /    95 INTEL LINUX NASTRAN    / AUG 28, 18 / PAGE    69
                                                                                                                                    
0                                                                                                                                   
 
 
                              E I G E N V A L U E   A N A L Y S I S   S U M M A R Y         (FEER METHOD)
0
0                                       NUMBER OF EIGENVALUES EXTRACTED  . . . . . .        30
0                                       NUMBER OF STARTING POINTS USED . . . . . . .         1
0                                       NUMBER OF STARTING POINT MOVES . . . . . . .         0
0                                       NUMBER OF TRIANGULAR DECOMPOSITIONS  . . . .         1
0                                       TOTAL NUMBER OF VECTOR ITERATIONS  . . . . .        29

0                                       REASON FOR TERMINATION . . . . . . . . . . .         0*

0                                       LARGEST OFF-DIAGONAL MODAL MASS TERM . . . .  0.00E+00
0                                                                              . . .         0
                                                  MODE PAIR . . . . . . . . . .
                                                                               . . .         0
0                                       NUMBER OF OFF-DIAGONAL MODAL MASS
                                             TERMS FAILING CRITERION . . . . . . . .         0

0                                       (* NORMAL TERMINATION              
                                         SEE NASTRAN U.M. VOL II, SECTION 2.3.3)
1     CRM_Wing Full Model Modal                                             /    95 INTEL LINUX NASTRAN    / AUG 28, 18 / PAGE    70
                                                                                                                                    
0                                                                                                                                   
 
                                              R E A L   E I G E N V A L U E S

   MODE    EXTRACTION       EIGENVALUE            RADIAN              CYCLIC           GENERALIZED         GENERALIZED
    NO.       ORDER                              FREQUENCY           FREQUENCY            MASS              STIFFNESS

        1         1        2.135802E+01        4.621474E+00        7.355304E-01        5.981530E+02        1.277536E+04             
        2         2        2.404429E+02        1.550622E+01        2.467892E+00        4.329556E+02        1.041011E+05             
        3         3        1.179760E+03        3.434764E+01        5.466597E+00        4.020124E+02        4.742782E+05             
        4         4        2.319655E+03        4.816280E+01        7.665347E+00        5.456163E+02        1.265642E+06             
        5         5        3.489319E+03        5.907046E+01        9.401355E+00        7.989394E+02        2.787754E+06             
        6         6        3.565083E+03        5.970832E+01        9.502874E+00        3.994418E+02        1.424043E+06             
        7         7        6.931791E+03        8.325738E+01        1.325082E+01        2.579169E+02        1.787826E+06             
        8         8        8.189785E+03        9.049743E+01        1.440311E+01        4.423564E+02        3.622804E+06             
        9         9        1.518623E+04        1.232324E+02        1.961305E+01        2.156537E+02        3.274966E+06             
       10        10        1.581579E+04        1.257608E+02        2.001546E+01        2.605049E+02        4.120091E+06             
       11        11        2.162051E+04        1.470391E+02        2.340200E+01        5.082368E+01        1.098834E+06             
       12        12        2.247723E+04        1.499241E+02        2.386116E+01        5.056068E+01        1.136464E+06             
       13        13        2.526198E+04        1.589402E+02        2.529611E+01        3.023942E+02        7.639075E+06             
       14        14        2.675932E+04        1.635827E+02        2.603500E+01        5.138955E+01        1.375149E+06             
       15        15        2.834008E+04        1.683451E+02        2.679296E+01        4.737567E+01        1.342630E+06             
       16        16        3.145810E+04        1.773643E+02        2.822841E+01        2.099607E+01        6.604966E+05             
       17        17        3.380496E+04        1.838613E+02        2.926243E+01        2.953975E+01        9.985902E+05             
       18        18        3.760376E+04        1.939169E+02        3.086283E+01        8.878918E+01        3.338807E+06             
       19        19        4.239232E+04        2.058940E+02        3.276904E+01        6.929956E+01        2.937769E+06             
       20        20        4.792144E+04        2.189097E+02        3.484055E+01        3.796113E+01        1.819152E+06             
       21        21        5.571720E+04        2.360449E+02        3.756771E+01        2.809070E+01        1.565135E+06             
       22        22        6.664007E+04        2.581474E+02        4.108543E+01        2.792131E+01        1.860678E+06             
       23        23        8.452697E+04        2.907352E+02        4.627195E+01        1.745983E+01        1.475827E+06             
       24        24        1.064917E+05        3.263307E+02        5.193714E+01        8.441574E+00        8.989576E+05             
       25        25        1.381798E+05        3.717254E+02        5.916194E+01        1.033760E+01        1.428447E+06             
       26        26        2.094870E+05        4.576975E+02        7.284482E+01        1.021947E+01        2.140847E+06             
       27        27        2.837573E+05        5.326887E+02        8.478004E+01        4.389663E+00        1.245599E+06             
       28        28        4.593131E+05        6.777264E+02        1.078635E+02        2.025697E+00        9.304291E+05             
       29        29        1.074520E+06        1.036590E+03        1.649785E+02        1.648375E+00        1.771212E+06             
       30        30        2.942432E+06        1.715352E+03        2.730067E+02        3.673156E+00        1.080801E+07             




                                        * * * END OF JOB * * *
1
 JOB TITLE =  CRM_Wing Full Model Modal                                          
 DATE:  8/28/18
 END TIME: 16:40:39
 TOTAL WALL CLOCK TIME      0 SEC.
 
