$ADD_PRE_BULK_CARDS
ID,Stick Statics
SOL,1
CEND
TITLE = Stick Model Static Analyses for Comparison
SPC = 1

$Marker to place python generated subcases
$${
SET 1=7000,7001,7002,7003,7004,7005,7006,7007,7008,7009,
7010,7011,7012,7013,7014,7015,7016,7017,7018,7019,
7020


DISP(PUNCH)=1
SUBCASE 1
    LOAD=122
SUBCASE 2
    LOAD=123
SUBCASE 3
    LOAD=124
SUBCASE 4
    LOAD=125
SUBCASE 5
    LOAD=126
SUBCASE 6
    LOAD=127
SUBCASE 7
    LOAD=128
SUBCASE 8
    LOAD=129
SUBCASE 9
    LOAD=130
SUBCASE 10
    LOAD=131
SUBCASE 11
    LOAD=132
SUBCASE 12
    LOAD=133
SUBCASE 13
    LOAD=134
SUBCASE 14
    LOAD=135
SUBCASE 15
    LOAD=136
SUBCASE 16
    LOAD=137
SUBCASE 17
    LOAD=138
SUBCASE 18
    LOAD=139
SUBCASE 19
    LOAD=140
SUBCASE 20
    LOAD=141
$ ... 200 like lines cut
$$}
BEGIN BULK


$Material
MAT1,1,7.000+10,2.632+10, ,0.0


$Nodes
GRID,7000,0,0.0,0.0,0.0,0
GRID,7001,0,1.31,0.0,0.0,0
GRID,7002,0,2.62,0.0,0.0,0
GRID,7003,0,3.93,0.0,0.0,0
GRID,7004,0,5.24,0.0,0.0,0
GRID,7005,0,6.55,0.0,0.0,0
GRID,7006,0,7.86,0.0,0.0,0
GRID,7007,0,9.17,0.0,0.0,0
GRID,7008,0,10.48,0.0,0.0,0
GRID,7009,0,11.79,0.0,0.0,0
GRID,7010,0,13.1,0.0,0.0,0
GRID,7011,0,14.41,0.0,0.0,0
GRID,7012,0,15.72,0.0,0.0,0
GRID,7013,0,17.03,0.0,0.0,0
GRID,7014,0,18.34,0.0,0.0,0
GRID,7015,0,19.65,0.0,0.0,0
GRID,7016,0,20.96,0.0,0.0,0
GRID,7017,0,22.27,0.0,0.0,0
GRID,7018,0,23.58,0.0,0.0,0
GRID,7019,0,24.89,0.0,0.0,0
GRID,7020,0,26.2,0.0,0.0,0

$Beam elements and properties
CBAR,1,1,7000,7001,0.0,1.0,-0.0,1, 
   , , ,0.0,-2.667+0,5.3678-6,0.0,-2.667+0,5.3678-6, 

PBAR,1,1,8.7359-2,6.2474-1,4.2745-3,1.0081-1, , 

CBAR,2,2,7001,7002,0.0,1.0,-0.0,1, 
   , , ,0.0,-2.665+0,1.9170-6,0.0,-2.665+0,1.9170-6, 

PBAR,2,1,8.4154-2,4.6626-1,2.9294-3,7.6294-2, , 

CBAR,3,3,7002,7003,0.0,1.0,-0.0,1, 
   , , ,0.0,-2.388+0,4.2027-6,0.0,-2.388+0,4.2027-6, 

PBAR,3,1,7.9700-2,3.7290-1,2.2307-3,5.5072-2, , 

CBAR,4,4,7003,7004,0.0,1.0,-0.0,1, 
   , , ,0.0,-2.127+0,3.1393-6,0.0,-2.127+0,3.1393-6, 

PBAR,4,1,7.5079-2,2.9269-1,1.6601-3,3.8707-2, , 

CBAR,5,5,7004,7005,0.0,1.0,-0.0,1, 
   , , ,0.0,-1.876+0,1.2085-6,0.0,-1.876+0,1.2085-6, 

PBAR,5,1,7.0535-2,2.2548-1,1.2102-3,2.6278-2, , 

CBAR,6,6,7005,7006,0.0,1.0,-0.0,1, 
   , , ,0.0,-1.628+0,3.8515-6,0.0,-1.628+0,3.8515-6, 

PBAR,6,1,6.6251-2,1.7019-1,8.6275-4,1.7100-2, , 

CBAR,7,7,7006,7007,0.0,1.0,-0.0,1, 
   , , ,0.0,-1.554+0,6.0589-6,0.0,-1.554+0,6.0589-6, 

PBAR,7,1,6.2757-2,1.4187-1,6.6485-4,1.2913-2, , 

CBAR,8,8,7007,7008,0.0,1.0,-0.0,1, 
   , , ,0.0,-1.476+0,5.2492-6,0.0,-1.476+0,5.2492-6, 

PBAR,8,1,6.1051-2,1.2908-1,5.6338-4,1.0514-2, , 

CBAR,9,9,7008,7009,0.0,1.0,-0.0,1, 
   , , ,0.0,-1.367+0,1.4737-6,0.0,-1.367+0,1.4737-6, 

PBAR,9,1,5.9567-2,1.1494-1,4.6524-4,8.2951-3, , 

CBAR,10,10,7009,7010,0.0,1.0,-0.0,1, 
   , , ,0.0,-1.257+0,1.0478-6,0.0,-1.257+0,1.0478-6, 

PBAR,10,1,5.7276-2,9.8134-2,3.6833-4,6.3011-3, , 

CBAR,11,11,7010,7011,0.0,1.0,-0.0,1, 
   , , ,0.0,-1.146+0,5.7112-7,0.0,-1.146+0,5.7112-7, 

PBAR,11,1,5.5094-2,8.3490-2,2.8974-4,4.6981-3, , 

CBAR,12,12,7011,7012,0.0,1.0,-0.0,1, 
   , , ,0.0,-1.036+0,3.0415-6,0.0,-1.036+0,3.0415-6, 

PBAR,12,1,5.2902-2,7.0405-2,2.2502-4,3.4367-3, , 

CBAR,13,13,7012,7013,0.0,1.0,-0.0,1, 
   , , ,0.0,-9.260-1,4.4782-6,0.0,-9.260-1,4.4782-6, 

PBAR,13,1,5.0693-2,5.8763-2,1.7229-4,2.4621-3, , 

CBAR,14,14,7013,7014,0.0,1.0,-0.0,1, 
   , , ,0.0,-8.154-1,4.5074-6,0.0,-8.154-1,4.5074-6, 

PBAR,14,1,4.8458-2,4.8474-2,1.2981-4,1.7239-3, , 

CBAR,15,15,7014,7015,0.0,1.0,-0.0,1, 
   , , ,0.0,-7.042-1,1.2207-6,0.0,-7.042-1,1.2207-6, 

PBAR,15,1,4.6187-2,3.9450-2,9.6056-5,1.1768-3, , 

CBAR,16,16,7015,7016,0.0,1.0,-0.0,1, 
   , , ,0.0,-5.922-1,1.8888-6,0.0,-5.922-1,1.8888-6, 

PBAR,16,1,4.3868-2,3.1603-2,6.9603-5,7.8091-4, , 

CBAR,17,17,7016,7017,0.0,1.0,-0.0,1, 
   , , ,0.0,-4.791-1,-6.857-7,0.0,-4.791-1,-6.857-7, 

PBAR,17,1,4.1482-2,2.4852-2,4.9243-5,5.0203-4, , 

CBAR,18,18,7017,7018,0.0,1.0,-0.0,1, 
   , , ,0.0,-3.650-1,1.9952-6,0.0,-3.650-1,1.9952-6, 

PBAR,18,1,3.9008-2,1.9113-2,3.3851-5,3.1126-4, , 

CBAR,19,19,7018,7019,0.0,1.0,-0.0,1, 
   , , ,0.0,-2.496-1,1.6363-6,0.0,-2.496-1,1.6363-6, 

PBAR,19,1,3.6360-2,1.4295-2,2.2422-5,1.8492-4, , 

CBAR,20,20,7019,7020,0.0,1.0,-0.0,1, 
   , , ,0.0,-1.313-1,-5.996-7,0.0,-1.313-1,-5.996-7, 

PBAR,20,1,2.8130-2,9.1363-3,1.2014-5,9.9215-5, , 


$Boundary conditions
SPC1,1,123456,7000
$Marker to place python generated loads
$${
FORCE          1    7001       0     1.0     1.0     0.0     0.0
MOMENT         1    7001       0     0.0     1.0     1.0     1.0
FORCE          2    7001       0     1.0     0.0     1.0     0.0
MOMENT         2    7001       0     0.0     1.0     1.0     1.0
FORCE          3    7001       0     1.0     0.0     0.0     1.0
MOMENT         3    7001       0     0.0     1.0     1.0     1.0
FORCE          4    7001       0     0.0     1.0     1.0     1.0
MOMENT         4    7001       0     1.0     1.0     0.0     0.0
FORCE          5    7001       0     0.0     1.0     1.0     1.0
MOMENT         5    7001       0     1.0     0.0     1.0     0.0
FORCE          6    7001       0     0.0     1.0     1.0     1.0
MOMENT         6    7001       0     1.0     0.0     0.0     1.0
FORCE          7    7002       0     1.0     1.0     0.0     0.0
MOMENT         7    7002       0     0.0     1.0     1.0     1.0
FORCE          8    7002       0     1.0     0.0     1.0     0.0
MOMENT         8    7002       0     0.0     1.0     1.0     1.0
FORCE          9    7002       0     1.0     0.0     0.0     1.0
MOMENT         9    7002       0     0.0     1.0     1.0     1.0
FORCE         10    7002       0     0.0     1.0     1.0     1.0
MOMENT        10    7002       0     1.0     1.0     0.0     0.0
FORCE         11    7002       0     0.0     1.0     1.0     1.0
MOMENT        11    7002       0     1.0     0.0     1.0     0.0
FORCE         12    7002       0     0.0     1.0     1.0     1.0
MOMENT        12    7002       0     1.0     0.0     0.0     1.0
FORCE         13    7003       0     1.0     1.0     0.0     0.0
MOMENT        13    7003       0     0.0     1.0     1.0     1.0
FORCE         14    7003       0     1.0     0.0     1.0     0.0
MOMENT        14    7003       0     0.0     1.0     1.0     1.0
FORCE         15    7003       0     1.0     0.0     0.0     1.0
MOMENT        15    7003       0     0.0     1.0     1.0     1.0
FORCE         16    7003       0     0.0     1.0     1.0     1.0
MOMENT        16    7003       0     1.0     1.0     0.0     0.0
FORCE         17    7003       0     0.0     1.0     1.0     1.0
MOMENT        17    7003       0     1.0     0.0     1.0     0.0
FORCE         18    7003       0     0.0     1.0     1.0     1.0
MOMENT        18    7003       0     1.0     0.0     0.0     1.0
FORCE         19    7004       0     1.0     1.0     0.0     0.0
MOMENT        19    7004       0     0.0     1.0     1.0     1.0
FORCE         20    7004       0     1.0     0.0     1.0     0.0
MOMENT        20    7004       0     0.0     1.0     1.0     1.0
$ ... 200 like lines cut


LOAD         122     1.0     1.0       1
LOAD         123     1.0     1.0       2
LOAD         124     1.0     1.0       3
LOAD         125     1.0     1.0       4
LOAD         126     1.0     1.0       5
LOAD         127     1.0     1.0       6
LOAD         128     1.0     1.0       7
LOAD         129     1.0     1.0       8
LOAD         130     1.0     1.0       9
LOAD         131     1.0     1.0      10
LOAD         132     1.0     1.0      11
LOAD         133     1.0     1.0      12
LOAD         134     1.0     1.0      13
LOAD         135     1.0     1.0      14
LOAD         136     1.0     1.0      15
LOAD         137     1.0     1.0      16
LOAD         138     1.0     1.0      17
LOAD         139     1.0     1.0      18
LOAD         140     1.0     1.0      19
LOAD         141     1.0     1.0      20
$ ... 100 like lines cut
$$}

ENDDATA
