





                                  ****
                                *      *
                               *        *
                               *  N A S T R A N
                               *        *
                                *      *
                                  ****


                            INTEL COMPUTER SYSTEMS   
                                 LINUX VERSION 

                          SYSTEM RELEASE -  1995 ED.

                                DISTRIBUTED BY

         COMPUTER SOFTWARE MANAGEMENT AND INFORMATION CENTER (COSMIC)
                 UNIVERSITY OF GEORGIA, ATHENS, GEORGIA 30602
                 PHONE: (706)542-3265      FAX: (706)542-4807
1                                                                           /    95 INTEL LINUX NASTRAN    / AUG 28, 18 / PAGE     2
                                                                                                                                    
0                                                                                                                                   
                                                                                                         
                                                                                                         
                         INSTALLATION CENTER USER INFORMATION GIVEN IN THIS SECTION                      
                                                                                                         
                                     *********************************************                       
                                     *                                           *                       
                                     *  PLEASE READ THE COMMENT IN DEMO PROBLEM  *                       
                                     *  D01002A ABOUT SYSTEM TIMING CONSTANTS    *                       
                                     *                                           *                       
                                     *********************************************                       
                                                                                                         
                         ===X=    TOP OF PAGE REQUEST IF 'X' IS REPLACED BY '='                          
                                                                                                         
1                                                                           /    95 INTEL LINUX NASTRAN    / AUG 28, 18 / PAGE     3
                                                                                                                                    
0                                                                                                                                   
0*** USER INFORMATION MESSAGE 225, GINO TIME CONSTANTS ARE BEING COMPUTED
     (SEE NASINFO FILE FOR ELIMINATION OF THESE COMPUTATIONS)
1                                                                           /    95 INTEL LINUX NASTRAN    / AUG 28, 18 / PAGE     4
                                                                                                                                    
0        N A S T R A N    E X E C U T I V E    C O N T R O L    D E C K    E C H O                                                  
0                                                                                                                                   
                                                                                                                                    
                                                                                                                                    
     $ADD_PRE_BULK_CARDS                                                             
     ID STICK MODAL                                                                  
     SOL,3                                                                           
     CEND                                                                            
0*** APP  DECLARATION CARD MISSING.  DISPLACEMENT IS SELECTED BY DEFAULT
0*** TIME  CARD MISSING. MAXIMUM EXECUTION TIME IS SET TO 5 MINUTES BY DEFAULT
1     Stick Model Modal Analysis n                                          /    95 INTEL LINUX NASTRAN    / AUG 28, 18 / PAGE     5
                                                                                                                                    
0                                                                                                                                   
0                                        C A S E    C O N T R O L   D E C K   E C H O                                               
                 CARD                                                                                                               
                 COUNT                                                                                                              
                  1      TITLE = Stick Model Modal Analysis n                                            
                  2      METHOD = 1                                                                      
                  3      SPC = 1                                                                         
                  4      SET 1 = 214,                                                                    
                  5      227,240,253,266,279,292,305,318,331,                                            
                  6      344,357,370,383,396,409,422,435,448,                                            
                  7      461,474,222,235,248,261,274,287,300,                                            
                  8      313,326,339,352,365,378,391,404,417,                                            
                  9      430,443,456,469,482                                                             
                 10                                                                                      
                 11                                                                                      
                 12      VECTOR(PUNCH)=1                                                                 
                 13      BEGIN BULK                                                                      


                        (NO. OF UNSORTED BULK DATA CARDS READ =   324, INCLUDING  26 COMMENT CARDS)
0*** USER INFORMATION MESSAGE 207, BULK DATA DECK IS NOT SORTED. NASTRAN WILL RE-ORDER THE INPUT DECK.
1     Stick Model Modal Analysis n                                          /    95 INTEL LINUX NASTRAN    / AUG 28, 18 / PAGE     6
                                                                                                                                    
0                                                                                                                                   
0                                                 S O R T E D   B U L K    D A T A    E C H O                                       
                     CARD                                                                                                           
                     COUNT        ---1--- +++2+++ ---3--- +++4+++ ---5--- +++6+++ ---7--- +++8+++ ---9--- +++10+++                  
                    1-        CBAR    1       1       7000    7001    0.0     1.0     -0.0    1       +C0N0001
                    2-        +C0N0001                0.0     -2.667+05.3678-60.0     -2.667+05.3678-6        
                    3-        CBAR    2       2       7001    7002    0.0     1.0     -0.0    1       +C0N0002
                    4-        +C0N0002                0.0     -2.665+01.9170-60.0     -2.665+01.9170-6        
                    5-        CBAR    3       3       7002    7003    0.0     1.0     -0.0    1       +C0N0003
                    6-        +C0N0003                0.0     -2.388+04.2027-60.0     -2.388+04.2027-6        
                    7-        CBAR    4       4       7003    7004    0.0     1.0     -0.0    1       +C0N0004
                    8-        +C0N0004                0.0     -2.127+03.1393-60.0     -2.127+03.1393-6        
                    9-        CBAR    5       5       7004    7005    0.0     1.0     -0.0    1       +C0N0005
                   10-        +C0N0005                0.0     -1.876+01.2085-60.0     -1.876+01.2085-6        
                   11-        CBAR    6       6       7005    7006    0.0     1.0     -0.0    1       +C0N0006
                   12-        +C0N0006                0.0     -1.628+03.8515-60.0     -1.628+03.8515-6        
                   13-        CBAR    7       7       7006    7007    0.0     1.0     -0.0    1       +C0N0007
                   14-        +C0N0007                0.0     -1.554+06.0589-60.0     -1.554+06.0589-6        
                   15-        CBAR    8       8       7007    7008    0.0     1.0     -0.0    1       +C0N0008
                   16-        +C0N0008                0.0     -1.476+05.2492-60.0     -1.476+05.2492-6        
                   17-        CBAR    9       9       7008    7009    0.0     1.0     -0.0    1       +C0N0009
                   18-        +C0N0009                0.0     -1.367+01.4737-60.0     -1.367+01.4737-6        
                   19-        CBAR    10      10      7009    7010    0.0     1.0     -0.0    1       +C0N0010
                   20-        +C0N0010                0.0     -1.257+01.0478-60.0     -1.257+01.0478-6        
                   21-        CBAR    11      11      7010    7011    0.0     1.0     -0.0    1       +C0N0011
                   22-        +C0N0011                0.0     -1.146+05.7112-70.0     -1.146+05.7112-7        
                   23-        CBAR    12      12      7011    7012    0.0     1.0     -0.0    1       +C0N0012
                   24-        +C0N0012                0.0     -1.036+03.0415-60.0     -1.036+03.0415-6        
                   25-        CBAR    13      13      7012    7013    0.0     1.0     -0.0    1       +C0N0013
                   26-        +C0N0013                0.0     -9.260-14.4782-60.0     -9.260-14.4782-6        
                   27-        CBAR    14      14      7013    7014    0.0     1.0     -0.0    1       +C0N0014
                   28-        +C0N0014                0.0     -8.154-14.5074-60.0     -8.154-14.5074-6        
                   29-        CBAR    15      15      7014    7015    0.0     1.0     -0.0    1       +C0N0015
                   30-        +C0N0015                0.0     -7.042-11.2207-60.0     -7.042-11.2207-6        
                   31-        CBAR    16      16      7015    7016    0.0     1.0     -0.0    1       +C0N0016
                   32-        +C0N0016                0.0     -5.922-11.8888-60.0     -5.922-11.8888-6        
                   33-        CBAR    17      17      7016    7017    0.0     1.0     -0.0    1       +C0N0017
                   34-        +C0N0017                0.0     -4.791-1-6.857-70.0     -4.791-1-6.857-7        
                   35-        CBAR    18      18      7017    7018    0.0     1.0     -0.0    1       +C0N0018
                   36-        +C0N0018                0.0     -3.650-11.9952-60.0     -3.650-11.9952-6        
                   37-        CBAR    19      19      7018    7019    0.0     1.0     -0.0    1       +C0N0019
                   38-        +C0N0019                0.0     -2.496-11.6363-60.0     -2.496-11.6363-6        
                   39-        CBAR    20      20      7019    7020    0.0     1.0     -0.0    1       +C0N0020
                   40-        +C0N0020                0.0     -1.313-1-5.996-70.0     -1.313-1-5.996-7        
                   41-        CONM2   21      7000            2.7898+26.1999-1-3.173+02.8489-6        +C0N0022
                   42-        +C0N00225.0212+39.1041+12.6179+2-5.364-4-2.123-45.2038+3                        
                   43-        CONM2   22      7001            2.1200+27.2187-1-2.723+01.8402-6        +C0N0023
                   44-        +C0N00233.0274+33.0969+11.7316+26.7758-51.3483-53.1523+3                        
                   45-        CONM2   23      7002            1.9348+27.1381-1-2.456+02.9207-6        +C0N0024
                   46-        +C0N00242.3642+32.8038+11.5294+21.9304-44.0507-52.4817+3                        
                   47-        CONM2   24      7003            1.7555+27.0579-1-2.188+02.6147-6        +C0N0025
1     Stick Model Modal Analysis n                                          /    95 INTEL LINUX NASTRAN    / AUG 28, 18 / PAGE     7
                                                                                                                                    

                                                                                                                                    

                                                  S O R T E D   B U L K    D A T A    E C H O                                       
                     CARD                                                                                                           
                     COUNT        ---1--- +++2+++ ---3--- +++4+++ ---5--- +++6+++ ---7--- +++8+++ ---9--- +++10+++                  
                   48-        +C0N00251.8119+32.5231+11.3466+2-2.757-4-5.703-51.9210+3                        
                   49-        CONM2   25      7004            1.5818+26.9781-1-1.921+01.7891-6        +C0N0026
                   50-        +C0N00261.3582+32.2543+11.1806+21.4239-42.9158-51.4583+3                        
                   51-        CONM2   26      7005            1.4134+26.8986-1-1.654+03.0535-6        +C0N0027
                   52-        +C0N00279.9126+21.9972+11.0289+2-1.458-4-3.007-51.0819+3                        
                   53-        CONM2   27      7006            1.2992+26.9368-1-1.465+04.3815-6        +C0N0028
                   54-        +C0N00287.7525+27.2728+09.3032+1-3.147-5-2.581-68.5938+2                        
                   55-        CONM2   28      7007            1.2433+26.9281-1-1.379+04.1165-6        +C0N0029
                   56-        +C0N00296.8592+24.3488+08.8142+13.0674-51.5779-67.6676+2                        
                   57-        CONM2   29      7008            1.1848+26.8668-1-1.289+02.2983-6        +C0N0030
                   58-        +C0N00306.0157+26.8870+08.3176+14.7411-54.0512-66.7883+2                        
                   59-        CONM2   30      7009            1.1160+26.8297-1-1.177+01.9584-6        +C0N0031
                   60-        +C0N00315.0825+26.4589+07.7555+11.1425-49.8054-65.8120+2                        
                   61-        CONM2   31      7010            1.0484+26.7936-1-1.065+01.5186-6        +C0N0032
                   62-        +C0N00324.2572+26.0425+07.2184+1-5.335-5-4.577-64.9438+2                        
                   63-        CONM2   32      7011            9.8200+16.7584-1-9.529-12.6823-6        +C0N0033
                   64-        +C0N00333.5317+25.6373+06.7040+15.7264-54.9229-64.1754+2                        
                   65-        CONM2   33      7012            9.1680+16.7241-1-8.409-13.3654-6        +C0N0034
                   66-        +C0N00342.8982+25.2417+06.2102+1-1.105-4-9.472-63.4993+2                        
                   67-        CONM2   34      7013            8.5274+10.669071-7.289-13.6346-6        +C0N0035
                   68-        +C0N00352.3491+24.8564+05.7353+1-2.179-5-1.869-62.9081+2                        
                   69-        CONM2   35      7014            7.8975+16.6582-1-6.169-12.1450-6        +C0N0036
                   70-        +C0N00361.8774+24.4810+05.2773+15.6685-54.8569-62.3947+2                        
                   71-        CONM2   36      7015            7.2779+16.6263-1-5.049-12.2929-6        +C0N0037
                   72-        +C0N00371.4760+24.1141+04.8347+1-7.467-5-6.406-61.9522+2                        
                   73-        CONM2   37      7016            6.6680+16.5951-1-3.929-11.1338-6        +C0N0038
                   74-        +C0N00381.1385+23.7562+04.4061+11.4861-41.2738-51.5742+2                        
                   75-        CONM2   38      7017            6.0672+16.5642-1-2.809-11.8760-6        +C0N0039
                   76-        +C0N00398.5857+13.4066+03.9900+1-1.055-4-9.040-61.2543+2                        
                   77-        CONM2   39      7018            5.4752+16.5333-1-1.689-12.0043-6        +C0N0040
                   78-        +C0N00406.3009+13.0643+03.5852+18.1473-56.9836-69.8653+1                        
                   79-        CONM2   40      7019            48.913136.5019-1-5.693-25.0012-7        +C0N0041
                   80-        +C0N00414.4728+12.7294+03.1907+11.2530-81.0787-97.6509+1                        
                   81-        CONM2   41      214             2.7898+20       0       0               +C0N0042
                   82-        +C0N00425.0212+39.1041+12.6179+2-5.364-4-2.123-45.2038+3                        
                   83-        CONM2   42      227             2.1200+20       0       0               +C0N0043
                   84-        +C0N00433.0274+33.0969+11.7316+26.7758-51.3483-53.1523+3                        
                   85-        CONM2   43      240             1.9348+20       0       0               +C0N0044
                   86-        +C0N00442.3642+32.8038+11.5294+21.9304-44.0507-52.4817+3                        
                   87-        CONM2   44      253             1.7555+20       0       0               +C0N0045
                   88-        +C0N00451.8119+32.5231+11.3466+2-2.757-4-5.703-51.9210+3                        
                   89-        CONM2   45      266             1.5818+20       0       0               +C0N0046
                   90-        +C0N00461.3582+32.2543+11.1806+21.4239-42.9158-51.4583+3                        
                   91-        CONM2   46      279             1.4134+20       0       0               +C0N0047
                   92-        +C0N00479.9126+21.9972+11.0289+2-1.458-4-3.007-51.0819+3                        
                   93-        CONM2   47      292             1.2992+20       0       0               +C0N0048
                   94-        +C0N00487.7525+27.2728+09.3032+1-3.147-5-2.581-68.5938+2                        
1     Stick Model Modal Analysis n                                          /    95 INTEL LINUX NASTRAN    / AUG 28, 18 / PAGE     8
                                                                                                                                    

                                                                                                                                    

                                                  S O R T E D   B U L K    D A T A    E C H O                                       
                     CARD                                                                                                           
                     COUNT        ---1--- +++2+++ ---3--- +++4+++ ---5--- +++6+++ ---7--- +++8+++ ---9--- +++10+++                  
                   95-        CONM2   48      305             1.2433+20       0       0               +C0N0049
                   96-        +C0N00496.8592+24.3488+08.8142+13.0674-51.5779-67.6676+2                        
                   97-        CONM2   49      318             1.1848+20       0       0               +C0N0050
                   98-        +C0N00506.0157+26.8870+08.3176+14.7411-54.0512-66.7883+2                        
                   99-        CONM2   50      331             1.1160+20       0       0               +C0N0051
                  100-        +C0N00515.0825+26.4589+07.7555+11.1425-49.8054-65.8120+2                        
                  101-        CONM2   51      344             1.0484+20       0       0               +C0N0052
                  102-        +C0N00524.2572+26.0425+07.2184+1-5.335-5-4.577-64.9438+2                        
                  103-        CONM2   52      357             9.8200+10       0       0               +C0N0053
                  104-        +C0N00533.5317+25.6373+06.7040+15.7264-54.9229-64.1754+2                        
                  105-        CONM2   53      370             9.1680+10       0       0               +C0N0054
                  106-        +C0N00542.8982+25.2417+06.2102+1-1.105-4-9.472-63.4993+2                        
                  107-        CONM2   54      383             8.5274+10       0       0               +C0N0055
                  108-        +C0N00552.3491+24.8564+05.7353+1-2.179-5-1.869-62.9081+2                        
                  109-        CONM2   55      396             7.8975+10       0       0               +C0N0056
                  110-        +C0N00561.8774+24.4810+05.2773+15.6685-54.8569-62.3947+2                        
                  111-        CONM2   56      409             7.2779+10       0       0               +C0N0057
                  112-        +C0N00571.4760+24.1141+04.8347+1-7.467-5-6.406-61.9522+2                        
                  113-        CONM2   57      422             6.6680+10       0       0               +C0N0058
                  114-        +C0N00581.1385+23.7562+04.4061+11.4861-41.2738-51.5742+2                        
                  115-        CONM2   58      435             6.0672+10       0       0               +C0N0059
                  116-        +C0N00598.5857+13.4066+03.9900+1-1.055-4-9.040-61.2543+2                        
                  117-        CONM2   59      448             5.4752+10       0       0               +C0N0060
                  118-        +C0N00606.3009+13.0643+03.5852+18.1473-56.9836-69.8653+1                        
                  119-        CONM2   60      461             48.913130       0       0               +C0N0061
                  120-        +C0N00614.4728+12.7294+03.1907+11.2530-81.0787-97.6509+1                        
                  121-        CONM2   61      222             2.7898+20       0       0               +C0N0062
                  122-        +C0N00625.0212+39.1041+12.6179+2-5.364-4-2.123-45.2038+3                        
                  123-        CONM2   62      235             2.1200+20       0       0               +C0N0063
                  124-        +C0N00633.0274+33.0969+11.7316+26.7758-51.3483-53.1523+3                        
                  125-        CONM2   63      248             1.9348+20       0       0               +C0N0064
                  126-        +C0N00642.3642+32.8038+11.5294+21.9304-44.0507-52.4817+3                        
                  127-        CONM2   64      261             1.7555+20       0       0               +C0N0065
                  128-        +C0N00651.8119+32.5231+11.3466+2-2.757-4-5.703-51.9210+3                        
                  129-        CONM2   65      274             1.5818+20       0       0               +C0N0066
                  130-        +C0N00661.3582+32.2543+11.1806+21.4239-42.9158-51.4583+3                        
                  131-        CONM2   66      287             1.4134+20       0       0               +C0N0067
                  132-        +C0N00679.9126+21.9972+11.0289+2-1.458-4-3.007-51.0819+3                        
                  133-        CONM2   67      300             1.2992+20       0       0               +C0N0068
                  134-        +C0N00687.7525+27.2728+09.3032+1-3.147-5-2.581-68.5938+2                        
                  135-        CONM2   68      313             1.2433+20       0       0               +C0N0069
                  136-        +C0N00696.8592+24.3488+08.8142+13.0674-51.5779-67.6676+2                        
                  137-        CONM2   69      326             1.1848+20       0       0               +C0N0070
                  138-        +C0N00706.0157+26.8870+08.3176+14.7411-54.0512-66.7883+2                        
                  139-        CONM2   70      339             1.1160+20       0       0               +C0N0071
                  140-        +C0N00715.0825+26.4589+07.7555+11.1425-49.8054-65.8120+2                        
                  141-        CONM2   71      352             1.0484+20       0       0               +C0N0072
1     Stick Model Modal Analysis n                                          /    95 INTEL LINUX NASTRAN    / AUG 28, 18 / PAGE     9
                                                                                                                                    

                                                                                                                                    

                                                  S O R T E D   B U L K    D A T A    E C H O                                       
                     CARD                                                                                                           
                     COUNT        ---1--- +++2+++ ---3--- +++4+++ ---5--- +++6+++ ---7--- +++8+++ ---9--- +++10+++                  
                  142-        +C0N00724.2572+26.0425+07.2184+1-5.335-5-4.577-64.9438+2                        
                  143-        CONM2   72      365             9.8200+10       0       0               +C0N0073
                  144-        +C0N00733.5317+25.6373+06.7040+15.7264-54.9229-64.1754+2                        
                  145-        CONM2   73      378             9.1680+10       0       0               +C0N0074
                  146-        +C0N00742.8982+25.2417+06.2102+1-1.105-4-9.472-63.4993+2                        
                  147-        CONM2   74      391             8.5274+10       0       0               +C0N0075
                  148-        +C0N00752.3491+24.8564+05.7353+1-2.179-5-1.869-62.9081+2                        
                  149-        CONM2   75      404             7.8975+10       0       0               +C0N0076
                  150-        +C0N00761.8774+24.4810+05.2773+15.6685-54.8569-62.3947+2                        
                  151-        CONM2   76      417             7.2779+10       0       0               +C0N0077
                  152-        +C0N00771.4760+24.1141+04.8347+1-7.467-5-6.406-61.9522+2                        
                  153-        CONM2   77      430             6.6680+10       0       0               +C0N0078
                  154-        +C0N00781.1385+23.7562+04.4061+11.4861-41.2738-51.5742+2                        
                  155-        CONM2   78      443             6.0672+10       0       0               +C0N0079
                  156-        +C0N00798.5857+13.4066+03.9900+1-1.055-4-9.040-61.2543+2                        
                  157-        CONM2   79      456             5.4752+10       0       0               +C0N0080
                  158-        +C0N00806.3009+13.0643+03.5852+18.1473-56.9836-69.8653+1                        
                  159-        CONM2   80      469             48.913130       0       0               +C0N0081
                  160-        +C0N00814.4728+12.7294+03.1907+11.2530-81.0787-97.6509+1                        
                  161-        CRIGD1  8000    7000    214     222                                             
                  162-        CRIGD1  8001    7001    227     235                                             
                  163-        CRIGD1  8002    7002    240     248                                             
                  164-        CRIGD1  8003    7003    253     261                                             
                  165-        CRIGD1  8004    7004    266     274                                             
                  166-        CRIGD1  8005    7005    279     287                                             
                  167-        CRIGD1  8006    7006    292     300                                             
                  168-        CRIGD1  8007    7007    305     313                                             
                  169-        CRIGD1  8008    7008    318     326                                             
                  170-        CRIGD1  8009    7009    331     339                                             
                  171-        CRIGD1  8010    7010    344     352                                             
                  172-        CRIGD1  8011    7011    357     365                                             
                  173-        CRIGD1  8012    7012    370     378                                             
                  174-        CRIGD1  8013    7013    383     391                                             
                  175-        CRIGD1  8014    7014    396     404                                             
                  176-        CRIGD1  8015    7015    409     417                                             
                  177-        CRIGD1  8016    7016    422     430                                             
                  178-        CRIGD1  8017    7017    435     443                                             
                  179-        CRIGD1  8018    7018    448     456                                             
                  180-        CRIGD1  8019    7019    461     469                                             
                  181-        CRIGD1  8020    7020    474     482                                             
                  182-        EIGR    1       FEER    0.1                     10                      +C0N0021
                  183-        +C0N0021MAX                                                                     
                  184-        GRID    214     0       0.0     -8.514-10.0     0                               
                  185-        GRID    222     0       0.0     7.6496230.0     0                               
                  186-        GRID    227     0       1.31    -8.514-10.0     0                               
                  187-        GRID    235     0       1.31    6.5767310.0     0                               
                  188-        GRID    240     0       2.62    -8.514-10.0     0                               
1     Stick Model Modal Analysis n                                          /    95 INTEL LINUX NASTRAN    / AUG 28, 18 / PAGE    10
                                                                                                                                    

                                                                                                                                    

                                                  S O R T E D   B U L K    D A T A    E C H O                                       
                     CARD                                                                                                           
                     COUNT        ---1--- +++2+++ ---3--- +++4+++ ---5--- +++6+++ ---7--- +++8+++ ---9--- +++10+++                  
                  189-        GRID    248     0       2.62    6.0402530.0     0                               
                  190-        GRID    253     0       3.93    -8.514-10.0     0                               
                  191-        GRID    261     0       3.93    5.5037440.0     0                               
                  192-        GRID    266     0       5.24    -8.514-10.0     0                               
                  193-        GRID    274     0       5.24    4.9672350.0     0                               
                  194-        GRID    279     0       6.55    -8.514-10.0     0                               
                  195-        GRID    287     0       6.55    4.4307250.0     0                               
                  196-        GRID    292     0       7.86    -8.514-10.0     0                               
                  197-        GRID    300     0       7.86    3.8942  0.0     0                               
                  198-        GRID    305     0       9.17    -8.514-10.0     0                               
                  199-        GRID    313     0       9.17    3.6796060.0     0                               
                  200-        GRID    318     0       10.48   -8.514-10.0     0                               
                  201-        GRID    326     0       10.48   3.5449350.0     0                               
                  202-        GRID    331     0       11.79   -8.514-10.0     0                               
                  203-        GRID    339     0       11.79   3.3204630.0     0                               
                  204-        GRID    344     0       13.1    -8.514-10.0     0                               
                  205-        GRID    352     0       13.1    3.0960080.0     0                               
                  206-        GRID    357     0       14.41   -8.514-10.0     0                               
                  207-        GRID    365     0       14.41   2.8715520.0     0                               
                  208-        GRID    370     0       15.72   -8.514-10.0     0                               
                  209-        GRID    378     0       15.72   2.64708 0.0     0                               
                  210-        GRID    383     0       17.03   -8.514-10.0     0                               
                  211-        GRID    391     0       17.03   2.4226240.0     0                               
                  212-        GRID    396     0       18.34   -8.514-10.0     0                               
                  213-        GRID    404     0       18.34   2.1981680.0     0                               
                  214-        GRID    409     0       19.65   -8.514-10.0     0                               
                  215-        GRID    417     0       19.65   1.9736960.0     0                               
                  216-        GRID    422     0       20.96   -8.514-10.0     0                               
                  217-        GRID    430     0       20.96   1.74924 0.0     0                               
                  218-        GRID    435     0       22.27   -8.514-10.0     0                               
                  219-        GRID    443     0       22.27   1.5247840.0     0                               
                  220-        GRID    448     0       23.58   -8.514-10.0     0                               
                  221-        GRID    456     0       23.58   1.3003130.0     0                               
                  222-        GRID    461     0       24.89   -8.514-10.0     0                               
                  223-        GRID    469     0       24.89   1.0758570.0     0                               
                  224-        GRID    474     0       26.2    -8.514-10.0     0                               
                  225-        GRID    482     0       26.2    0.8514010.0     0                               
                  226-        GRID    7000    0       0.0     0.0     0.0     0                               
                  227-        GRID    7001    0       1.31    0.0     0.0     0                               
                  228-        GRID    7002    0       2.62    0.0     0.0     0                               
                  229-        GRID    7003    0       3.93    0.0     0.0     0                               
                  230-        GRID    7004    0       5.24    0.0     0.0     0                               
                  231-        GRID    7005    0       6.55    0.0     0.0     0                               
                  232-        GRID    7006    0       7.86    0.0     0.0     0                               
                  233-        GRID    7007    0       9.17    0.0     0.0     0                               
                  234-        GRID    7008    0       10.48   0.0     0.0     0                               
                  235-        GRID    7009    0       11.79   0.0     0.0     0                               
1     Stick Model Modal Analysis n                                          /    95 INTEL LINUX NASTRAN    / AUG 28, 18 / PAGE    11
                                                                                                                                    

                                                                                                                                    

                                                  S O R T E D   B U L K    D A T A    E C H O                                       
                     CARD                                                                                                           
                     COUNT        ---1--- +++2+++ ---3--- +++4+++ ---5--- +++6+++ ---7--- +++8+++ ---9--- +++10+++                  
                  236-        GRID    7010    0       13.1    0.0     0.0     0                               
                  237-        GRID    7011    0       14.41   0.0     0.0     0                               
                  238-        GRID    7012    0       15.72   0.0     0.0     0                               
                  239-        GRID    7013    0       17.03   0.0     0.0     0                               
                  240-        GRID    7014    0       18.34   0.0     0.0     0                               
                  241-        GRID    7015    0       19.65   0.0     0.0     0                               
                  242-        GRID    7016    0       20.96   0.0     0.0     0                               
                  243-        GRID    7017    0       22.27   0.0     0.0     0                               
                  244-        GRID    7018    0       23.58   0.0     0.0     0                               
                  245-        GRID    7019    0       24.89   0.0     0.0     0                               
                  246-        GRID    7020    0       26.2    0.0     0.0     0                               
                  247-        MAT1    1       7.000+102.632+10        0.0                                     
                  248-        PARAM   GRDPNT  0                                                               
                  249-        PBAR    1       1       8.7359-26.2474-14.2745-31.0081-1                        
                  250-        PBAR    2       1       8.4154-24.6626-12.9294-37.6294-2                        
                  251-        PBAR    3       1       7.9700-23.7290-12.2307-35.5072-2                        
                  252-        PBAR    4       1       7.5079-22.9269-11.6601-33.8707-2                        
                  253-        PBAR    5       1       7.0535-22.2548-11.2102-32.6278-2                        
                  254-        PBAR    6       1       6.6251-21.7019-18.6275-41.7100-2                        
                  255-        PBAR    7       1       6.2757-21.4187-16.6485-41.2913-2                        
                  256-        PBAR    8       1       6.1051-21.2908-15.6338-41.0514-2                        
                  257-        PBAR    9       1       5.9567-21.1494-14.6524-48.2951-3                        
                  258-        PBAR    10      1       5.7276-29.8134-23.6833-46.3011-3                        
                  259-        PBAR    11      1       5.5094-28.3490-22.8974-44.6981-3                        
                  260-        PBAR    12      1       5.2902-27.0405-22.2502-43.4367-3                        
                  261-        PBAR    13      1       5.0693-25.8763-21.7229-42.4621-3                        
                  262-        PBAR    14      1       4.8458-24.8474-21.2981-41.7239-3                        
                  263-        PBAR    15      1       4.6187-23.9450-29.6056-51.1768-3                        
                  264-        PBAR    16      1       4.3868-23.1603-26.9603-57.8091-4                        
                  265-        PBAR    17      1       4.1482-22.4852-24.9243-55.0203-4                        
                  266-        PBAR    18      1       3.9008-21.9113-23.3851-53.1126-4                        
                  267-        PBAR    19      1       3.6360-21.4295-22.2422-51.8492-4                        
                  268-        PBAR    20      1       2.8130-29.1363-31.2014-59.9215-5                        
                  269-        SPC1    1       123456  7000                                                    
                              ENDDATA
1     Stick Model Modal Analysis n                                          /    95 INTEL LINUX NASTRAN    / AUG 28, 18 / PAGE    12
                                                                                                                                    
0                                                                                                                                   
0*** USER INFORMATION MESSAGES FROM RESEQUENCING PROCESSOR - BANDIT     (CRI= 1,  MTH= 3,  MPC= 0,  DEP=-1,  PCH=-1)

                               BEFORE RESEQUENCING - - -
                                        BANDWIDTH            2
                                        PROFILE             81
                                        MAX WAVEFRONT        2
                                        AVG WAVEFRONT    1.328
                                        RMS WAVEFRONT    1.408
                                        RMS BANDWIDTH    1.408

                               AFTER RESEQUENCING BY GIBBS-POOLE-STOCKMEYER (GPS) ALGORITHM - - -
                                        BANDWIDTH            2
                                        PROFILE             81
                                        MAX WAVEFRONT        2
                                        AVG WAVEFRONT    1.328
                                        RMS WAVEFRONT    1.408
                                        RMS BANDWIDTH    1.408


                                                     *** BANDIT SUMMARY ***

                                                                        BEFORE     AFTER
                                        BANDWIDTH (B)                        2         2
                                        PROFILE (P)                         81        81
                                        MAXIMUM WAVEFRONT (C-MAX)            2         2
                                        AVERAGE WAVEFRONT (C-AVG)        1.328     1.328
                                        RMS WAVEFRONT (C-RMS)            1.408     1.408
                                        RMS BANDWITCH (B-RMS)            1.408     1.408
                                        NUMBER OF GRID POINTS (N)                     63
                                        NUMBER OF ELEMENTS (NON-RIGID)                80
                                        NUMBER OF RIGID ELEMENTS PROCESSED*            0
                                        NUMBER OF MPC  EQUATIONS PROCESSED*            0
                                        NUMBER OF COMPONENTS                          41
                                        MAXIMUM NODAL DEGREE                           2
                                        MINIMUM NODAL DEGREE                           0
                                        NUMBER OF UNIQUE EDGES                        20
                                        MATRIX DENSITY, PERCENT                    2.714
                                        NUMBER OF POINTS OF ZERO DEGREE               40
                                        BANDIT OPEN CORE                        ********
                                        CRITERION*                         RMS WAVEFRONT
                                        METHOD USED*                                 GPS

                               (* THESE DEFAULT OPTIONS CAN BE OVERRIDDEN BY THE NASTRAN CARD)


                               BANDIT FINDS GRID POINT RE-SEQUENCING NOT NECESSARY
0         **NO ERRORS FOUND - EXECUTE NASTRAN PROGRAM**
0*** USER WARNING MESSAGE 2015, EITHER NO ELEMENTS CONNECTED TO EXTERNAL GRID POINT      474
     OR IT IS CONNECTED TO A RIGID ELEMENT OR A GENERAL ELEMENT.
0*** USER WARNING MESSAGE 2015, EITHER NO ELEMENTS CONNECTED TO EXTERNAL GRID POINT      482
     OR IT IS CONNECTED TO A RIGID ELEMENT OR A GENERAL ELEMENT.
0*** USER INFORMATION MESSAGE 238, TURN DIAG 38 ON FOR ADDITIONAL ELEMENT PROCESSING INFORMATION

0*** USER INFORMATION MESSAGE 3113,
     EMG MODULE PROCESSING DOUBLE PRECISION BAR      ELEMENTS (ELEMENT TYPE  34) STARTING WITH ID        1
0*** USER INFORMATION MESSAGE 3113,
     EMG MODULE PROCESSING DOUBLE PRECISION CONM2    ELEMENTS (ELEMENT TYPE  30) STARTING WITH ID       21
0*** USER WARNING MESSAGE 3041
0EXTERNAL GRID POINT        0 DOES NOT EXIST OR IS NOT A GEOMETRIC GRID POINT.
     THE BASIC ORIGIN WILL BE USED.
1     Stick Model Modal Analysis n                                          /    95 INTEL LINUX NASTRAN    / AUG 28, 18 / PAGE    13
                                                                                                                                    
0                                                                                                                                   
 
 
                           O U T P U T   F R O M   G R I D   P O I N T   W E I G H T   G E N E R A T O R
0                                                     REFERENCE POINT =        0
 
 
                                     MO - RIGID BODY MASS MATRIX IN BASIC COORDINATE SYSTEM
                ***                                                                                             ***
                *  7.21987538D+03  0.00000000D+00  0.00000000D+00  0.00000000D+00  6.19649587D-03 -4.49572175D+03 *
                *  0.00000000D+00  7.21987538D+03  0.00000000D+00 -6.19649587D-03  0.00000000D+00  6.69349491D+04 *
                *  0.00000000D+00  0.00000000D+00  7.21987538D+03  4.49572175D+03 -6.69349491D+04  0.00000000D+00 *
                *  0.00000000D+00 -6.19649587D-03  4.49572175D+03  1.22666838D+05 -2.18376987D+04 -5.53872743D-02 *
                *  6.19649587D-03  0.00000000D+00 -6.69349491D+04 -2.18376987D+04  1.00305664D+06  1.11738549D-02 *
                * -4.49572175D+03  6.69349491D+04  0.00000000D+00 -5.53872743D-02  1.11738549D-02  1.12494964D+06 *
                ***                                                                                             ***
                                        S - TRANSFORMATION MATRIX FOR SCALAR MASS PARTITION
                                        ***                                             ***
                                        *  1.00000000D+00  0.00000000D+00  0.00000000D+00 *
                                        *  0.00000000D+00  1.00000000D+00  0.00000000D+00 *
                                        *  0.00000000D+00  0.00000000D+00  1.00000000D+00 *
                                        ***                                             ***
                         DIRECTION
                    MASS AXIS SYSTEM (S)       MASS                 X-C.G.           Y-C.G.           Z-C.G.
                            X            7.219875378D+03      0.000000000D+00  6.226868908D-01  8.582552393D-07
                            Y            7.219875378D+03      9.270928600D+00  0.000000000D+00  8.582552393D-07
                            Z            7.219875378D+03      9.270928600D+00  6.226868908D-01  0.000000000D+00

                                                 I(S) - INERTIAS RELATIVE TO C.G. 
                                      ***                                                 ***
                                      *  1.198674109D+05 -1.984181665D+04 -2.059996434D-03  *
                                      * -1.984181665D+04  3.825075040D+05 -1.503233167D-02  *
                                      * -2.059996434D-03 -1.503233167D-02  5.016010765D+05  *
                                      ***                                                 ***
                                                      I(Q) - PRINCIPAL INERTIAS
                                      ***                                                 ***
                                      *  3.839980456D+05                                    *
                                      *                   1.183768693D+05                   *
                                      *                                    5.016010765D+05  *
                                      ***                                                 ***
                                            Q - TRANSFORMATION MATRIX - I(Q) = QT*I(S)*Q
                                      ***                                                 ***
                                      *  7.491015521D-02  9.971902871D-01  0.000000000D+00  *
                                      * -9.971902871D-01  7.491015521D-02  0.000000000D+00  *
                                      *  0.000000000D+00  0.000000000D+00  1.000000000D+00  *
                                      ***                                                 ***
1     Stick Model Modal Analysis n                                          /    95 INTEL LINUX NASTRAN    / AUG 28, 18 / PAGE    14
                                                                                                                                    

                                                                                                                                    

                                                                                                                                    
                                                                                                                                    
                                                                                                                                    
0*** USER INFORMATION MESSAGE 3113, RIGID ELEMENTS ARE BEING PROCESSED IN GP4

                        0 ROOTS BELOW   3.947842E-01
0*** USER WARNING MESSAGE 2399
     ONLY THE FIRST   15 EIGENSOLUTIONS CLOSEST TO THE SHIFT POINT (F1 OR ZERO) PASS THE FEER ACCURACY TEST FOR EIGENVECTORS.
0*** USER INFORMATION MESSAGE 2392
       20 MORE ACCURATE EIGENSOLUTIONS THAN THE   10 REQUESTED HAVE BEEN FOUND.
     USE DIAG 16 TO DETERMINE ERROR BOUNDS
1     Stick Model Modal Analysis n                                          /    95 INTEL LINUX NASTRAN    / AUG 28, 18 / PAGE    15
                                                                                                                                    
0                                                                                                                                   
 
 
                              E I G E N V A L U E   A N A L Y S I S   S U M M A R Y         (FEER METHOD)
0
0                                       NUMBER OF EIGENVALUES EXTRACTED  . . . . . .        30
0                                       NUMBER OF STARTING POINTS USED . . . . . . .         1
0                                       NUMBER OF STARTING POINT MOVES . . . . . . .         0
0                                       NUMBER OF TRIANGULAR DECOMPOSITIONS  . . . .         1
0                                       TOTAL NUMBER OF VECTOR ITERATIONS  . . . . .        47

0                                       REASON FOR TERMINATION . . . . . . . . . . .         0*

0                                       LARGEST OFF-DIAGONAL MODAL MASS TERM . . . .  0.00E+00
0                                                                              . . .         0
                                                  MODE PAIR . . . . . . . . . .
                                                                               . . .         0
0                                       NUMBER OF OFF-DIAGONAL MODAL MASS
                                             TERMS FAILING CRITERION . . . . . . . .         0

0                                       (* NORMAL TERMINATION              
                                         SEE NASTRAN U.M. VOL II, SECTION 2.3.3)
1     Stick Model Modal Analysis n                                          /    95 INTEL LINUX NASTRAN    / AUG 28, 18 / PAGE    16
                                                                                                                                    
0                                                                                                                                   
 
                                              R E A L   E I G E N V A L U E S

   MODE    EXTRACTION       EIGENVALUE            RADIAN              CYCLIC           GENERALIZED         GENERALIZED
    NO.       ORDER                              FREQUENCY           FREQUENCY            MASS              STIFFNESS

        1         1        1.330699E+01        3.647875E+00        5.805774E-01        6.051368E+02        8.052552E+03             
        2         2        1.577469E+02        1.255973E+01        1.998944E+00        4.080482E+02        6.436834E+04             
        3         3        7.616757E+02        2.759847E+01        4.392433E+00        3.671112E+02        2.796197E+05             
        4         4        1.312105E+03        3.622299E+01        5.765068E+00        2.464265E+03        3.233373E+06             
        5         5        2.247387E+03        4.740662E+01        7.544998E+00        3.685070E+02        8.281781E+05             
        6         6        2.642286E+03        5.140318E+01        8.181069E+00        8.034616E+02        2.122976E+06             
        7         7        3.641030E+03        6.034095E+01        9.603559E+00        1.321805E+03        4.812730E+06             
        8         8        5.011025E+03        7.078860E+01        1.126635E+01        4.086910E+02        2.047961E+06             
        9         9        7.824604E+03        8.845679E+01        1.407834E+01        1.396512E+03        1.092715E+07             
       10        10        9.345665E+03        9.667298E+01        1.538598E+01        5.517379E+02        5.156358E+06             
       11        11        1.330057E+04        1.153281E+02        1.835504E+01        1.839608E+03        2.446784E+07             
       12        12        1.549408E+04        1.244752E+02        1.981085E+01        9.650925E+02        1.495322E+07             
       13        13        2.015637E+04        1.419731E+02        2.259572E+01        1.970320E+03        3.971450E+07             
       14        14        2.316758E+04        1.522090E+02        2.422482E+01        1.327865E+03        3.076343E+07             
       15        15        2.858770E+04        1.690790E+02        2.690975E+01        2.627256E+03        7.510720E+07             
       16        16        3.187742E+04        1.785425E+02        2.841592E+01        1.430956E+03        4.561520E+07             
       17        17        3.318530E+04        1.821683E+02        2.899299E+01        7.000774E+02        2.323228E+07             
       18        18        3.802573E+04        1.950019E+02        3.103551E+01        2.635128E+03        1.002027E+08             
       19        19        4.161454E+04        2.039964E+02        3.246704E+01        1.216015E+03        5.060388E+07             
       20        20        4.809212E+04        2.192992E+02        3.490255E+01        2.415188E+03        1.161515E+08             
       21        21        5.764546E+04        2.400947E+02        3.821226E+01        1.142494E+03        6.585962E+07             
       22        22        6.410002E+04        2.531798E+02        4.029482E+01        2.820432E+03        1.807897E+08             
       23        23        8.139909E+04        2.853053E+02        4.540774E+01        4.087476E+03        3.327169E+08             
       24        24        1.019966E+05        3.193691E+02        5.082918E+01        3.651780E+03        3.724692E+08             
       25        25        1.305804E+05        3.613591E+02        5.751209E+01        9.576486E+02        1.250502E+08             
       26        26        1.990362E+05        4.461347E+02        7.100454E+01        5.440113E+03        1.082779E+09             
       27        27        2.951165E+05        5.432463E+02        8.646033E+01        1.184815E+03        3.496585E+08             
       28        28        5.493632E+05        7.411904E+02        1.179641E+02        2.702276E+03        1.484531E+09             
       29        29        9.613713E+05        9.804954E+02        1.560507E+02        4.452745E+03        4.280741E+09             
       30        30        3.247411E+06        1.802057E+03        2.868063E+02        9.352263E+03        3.037064E+10             




                                        * * * END OF JOB * * *
1
 JOB TITLE =  Stick Model Modal Analysis n                                       
 DATE:  8/28/18
 END TIME: 16:40:41
 TOTAL WALL CLOCK TIME      0 SEC.
 
