ID CRM WING
SOL 1
$ALTER for stiffness matrix decomposition input
$ALTER 82 82
$INPUTT2,/LLL,,,,/C,N,-1/C,N,11
$ENDALTER
CEND
MAXLINES=999999999
TITLE=crm_reference_mda
SPC = 1
MPC = 1493985
DISP(PUNCH) = ALL
STRESS(PUNCH) = ALL
SUBCASE 1
LOAD = 203
BEGIN BULK
PARAM,AUTOSPC,1
PARAM,GRDPNT,0
$,Elements,and,Element,Properties,for,region,:,pbar.30
PBAR,30,2,.0001636,7.638E-9,5.722E-8,2.25E-10
$,Pset:,"pbar.30",will,be,imported,as:,"pbar.30"
CBAR,16653,30,2513,4506,.0254,2.081E-7,-1.3E-10
,,,0.,0.,.0508,0.,0.,.0508
CBAR,18026,30,4359,1939,.0254,2.081E-7,-1.3E-10
,,,0.,0.,.0508,0.,0.,.0508
CBAR,18027,30,1939,4462,.0254,2.081E-7,-1.3E-10
,,,0.,0.,.0508,0.,0.,.0508
CBAR,18028,30,4462,2694,.0254,2.081E-7,-1.3E-10
,,,0.,0.,.0508,0.,0.,.0508
CBAR,18029,30,2694,4512,.0254,2.081E-7,-1.3E-10
,,,0.,0.,.0508,0.,0.,.0508
CBAR,18030,30,4512,2025,.0254,2.081E-7,-1.3E-10
,,,0.,0.,.0508,0.,0.,.0508
CBAR,18031,30,2025,4556,.0254,2.081E-7,-1.3E-10
,,,0.,0.,.0508,0.,0.,.0508
CBAR,18032,30,4556,2797,.0254,2.081E-7,-1.3E-10
,,,0.,0.,.0508,0.,0.,.0508
CBAR,18033,30,2797,4557,.0254,2.081E-7,-1.3E-10
,,,0.,0.,.0508,0.,0.,.0508
CBAR,18035,30,1973,4550,.0254,2.081E-7,-1.3E-10
,,,0.,0.,.0508,0.,0.,.0508
CBAR,18036,30,4550,1405,.0254,2.081E-7,-1.3E-10
,,,0.,0.,.0508,0.,0.,.0508
CBAR,18037,30,1405,4494,.0254,2.081E-7,-1.3E-10
,,,0.,0.,.0508,0.,0.,.0508
CBAR,18038,30,4494,2286,.0254,2.081E-7,-1.3E-10
,,,0.,0.,.0508,0.,0.,.0508
CBAR,18039,30,2286,4446,.0254,2.081E-7,-1.3E-10
,,,0.,0.,.0508,0.,0.,.0508
CBAR,1556578,30,2651,3262,-.0254,0.,0.
,,,0.,0.,-.0508,0.,0.,-.0508
CBAR,1556579,30,3262,1952,-.0254,0.,0.
,,,0.,0.,-.0508,0.,0.,-.0508
CBAR,1556580,30,1952,3260,-.0254,0.,0.
,,,0.,0.,-.0508,0.,0.,-.0508
CBAR,1556581,30,3260,2680,-.0254,0.,0.
,,,0.,0.,-.0508,0.,0.,-.0508
CBAR,1556582,30,2680,3258,-.0254,0.,0.
,,,0.,0.,-.0508,0.,0.,-.0508
CBAR,1556583,30,3258,2011,-.0254,0.,0.
,,,0.,0.,-.0508,0.,0.,-.0508
$ ... 2514 like lines cut
$,Elements,and,Element,Properties,for,region,:,pbar.31
PBAR,31,2,.0003403,5.184E-8,3.119E-7,7.32E-10
$,Pset:,"pbar.31",will,be,imported,as:,"pbar.31"
CBAR,16613,31,1793,4833,.0254,2.081E-7,-1.3E-10
,,,0.,0.,.0762,0.,0.,.0762
CBAR,16730,31,2873,4821,.0254,2.081E-7,-1.3E-10
,,,0.,0.,.0762,0.,0.,.0762
CBAR,16731,31,4821,3160,.0254,2.081E-7,-1.3E-10
,,,0.,0.,.0762,0.,0.,.0762
CBAR,18679,31,4642,2987,.0254,2.081E-7,-1.3E-10
,,,0.,0.,.0762,0.,0.,.0762
CBAR,18680,31,2987,4644,.0254,2.081E-7,-1.3E-10
,,,0.,0.,.0762,0.,0.,.0762
CBAR,18681,31,4644,2836,.0254,2.081E-7,-1.3E-10
,,,0.,0.,.0762,0.,0.,.0762
CBAR,18682,31,2836,4646,.0254,2.081E-7,-1.3E-10
,,,0.,0.,.0762,0.,0.,.0762
CBAR,18683,31,4646,3121,.0254,2.081E-7,-1.3E-10
,,,0.,0.,.0762,0.,0.,.0762
CBAR,1556539,31,3635,1331,-.0254,0.,0.
,,,0.,0.,-.0762,0.,0.,-.0762
CBAR,1556540,31,1331,3633,-.0254,0.,0.
,,,0.,0.,-.0762,0.,0.,-.0762
CBAR,1556541,31,3633,1170,-.0254,0.,0.
,,,0.,0.,-.0762,0.,0.,-.0762
CBAR,1556542,31,1170,3631,-.0254,0.,0.
,,,0.,0.,-.0762,0.,0.,-.0762
CBAR,1556543,31,3631,2887,-.0254,0.,0.
,,,0.,0.,-.0762,0.,0.,-.0762
CBAR,1556544,31,2887,3629,-.0254,0.,0.
,,,0.,0.,-.0762,0.,0.,-.0762
CBAR,1556545,31,3629,1339,-.0254,0.,0.
,,,0.,0.,-.0762,0.,0.,-.0762
CBAR,1556546,31,1339,3627,-.0254,0.,0.
,,,0.,0.,-.0762,0.,0.,-.0762
CBAR,1556547,31,3627,1082,-.0254,0.,0.
,,,0.,0.,-.0762,0.,0.,-.0762
CBAR,1556548,31,1082,3625,-.0254,0.,0.
,,,0.,0.,-.0762,0.,0.,-.0762
CBAR,1556549,31,3625,2115,-.0254,0.,0.
,,,0.,0.,-.0762,0.,0.,-.0762
CBAR,1556550,31,2115,3623,-.0254,0.,0.
,,,0.,0.,-.0762,0.,0.,-.0762
$ ... 3410 like lines cut
$,Elements,and,Element,Properties,for,region,:,pbar.32
PBAR,32,2,.0003097,2.4E-10,2.664E-7,9.41E-10
$,Pset:,"pbar.32",will,be,imported,as:,"pbar.32"
CBAR,20480,32,969,967,-.015041,-.0443,.998903
CBAR,20493,32,943,941,-.015041,-.0443,.998903
CBAR,20494,32,941,939,-.015041,-.0443,.998903
CBAR,20495,32,939,937,-.015041,-.0443,.998903
CBAR,20496,32,937,935,-.015041,-.0443,.998903
CBAR,20497,32,935,933,-.015041,-.0443,.998903
CBAR,20498,32,933,931,-.015041,-.0443,.998903
CBAR,20499,32,931,929,-.015041,-.0443,.998903
CBAR,20500,32,929,924,-.015041,-.0443,.998903
CBAR,20501,32,924,927,-.015041,-.0443,.998903
CBAR,1562137,32,7429,7428,-.015041,-.0443,.998903
CBAR,1562138,32,7428,1027,-.015041,-.0443,.998903
CBAR,1562139,32,1027,1023,-.015041,-.0443,.998903
CBAR,1562140,32,1023,1021,-.015041,-.0443,.998903
CBAR,1562141,32,1021,1019,-.015041,-.0443,.998903
CBAR,1562142,32,1019,1017,-.015041,-.0443,.998903
CBAR,1562143,32,1017,1015,-.015041,-.0443,.998903
CBAR,1562144,32,1015,1013,-.015041,-.0443,.998903
CBAR,1562145,32,1013,1011,-.015041,-.0443,.998903
CBAR,1562146,32,1011,1009,-.015041,-.0443,.998903
$ ... 844 like lines cut
$,Elements,and,Element,Properties,for,region,:,pbar.33
PBAR,33,2,.0005161,4.44E-7,1.11E-9,4.3E-9
$,Pset:,"pbar.33",will,be,imported,as:,"pbar.33"
CBAR,35407,33,9923,6414,3.901E-6,-.0254,-1.8E-17
CBAR,35408,33,13018,9990,3.901E-6,-.0254,-1.8E-17
CBAR,43645,33,6973,9036,3.901E-6,-.0254,-1.8E-17
CBAR,43646,33,9036,11583,3.901E-6,-.0254,-1.8E-17
CBAR,43647,33,250,11044,3.901E-6,-.0254,-1.8E-17
CBAR,43648,33,11044,11584,3.901E-6,-.0254,-1.8E-17
CBAR,43649,33,6267,7337,3.901E-6,-.0254,-1.8E-17
CBAR,43650,33,7337,11587,3.901E-6,-.0254,-1.8E-17
CBAR,43651,33,6268,7338,3.901E-6,-.0254,-1.8E-17
CBAR,43652,33,7338,11588,3.901E-6,-.0254,-1.8E-17
CBAR,43653,33,6270,7339,3.901E-6,-.0254,-1.8E-17
CBAR,43654,33,7339,11589,3.901E-6,-.0254,-1.8E-17
CBAR,43655,33,6272,7340,3.901E-6,-.0254,-1.8E-17
CBAR,43656,33,7340,11590,3.901E-6,-.0254,-1.8E-17
CBAR,43657,33,6274,7341,3.901E-6,-.0254,-1.8E-17
CBAR,43658,33,7341,11591,3.901E-6,-.0254,-1.8E-17
CBAR,43659,33,6276,7342,3.901E-6,-.0254,-1.8E-17
CBAR,43660,33,7342,11592,3.901E-6,-.0254,-1.8E-17
CBAR,43661,33,6278,7343,3.901E-6,-.0254,-1.8E-17
CBAR,43662,33,7343,11593,3.901E-6,-.0254,-1.8E-17
$ ... 1256 like lines cut
CBAR,1561220,33,993,3086,-5.E-7,-.0254,5.69E-20
CBAR,1561221,33,3086,6482,-4.04E-7,-.0254,-4.6E-17
CBAR,1561222,33,6482,6480,-3.05E-7,-.0254,0.
CBAR,1561223,33,6480,6478,-2.37E-7,-.0254,-2.8E-20
CBAR,1561224,33,6478,6476,-1.75E-7,-.0254,-4.6E-17
CBAR,1561225,33,6476,6474,-4.83E-5,-.0254,-3.E-20
CBAR,1561226,33,6474,6472,5.057E-6,-.0254,-5.8E-19
CBAR,1561227,33,6472,6470,4.389E-5,-.0254,-4.1E-17
CBAR,1561228,33,6470,6468,1.53E-7,-.0254,0.
CBAR,1561229,33,6468,6466,-4.27E-5,-.0254,-4.6E-17
CBAR,1561230,33,6466,6464,-9.3E-6,-.0254,4.52E-17
CBAR,1561231,33,6464,6462,2.153E-6,-.0254,0.
CBAR,1561232,33,6462,6460,7.257E-6,-.0254,0.
CBAR,1561233,33,6460,6459,4.384E-5,-.0254,5.E-18
CBAR,1561234,33,6459,6457,-4.04E-5,-.0254,4.06E-17
CBAR,1561235,33,6457,6455,4.092E-5,-.0254,-4.1E-17
CBAR,1561236,33,6455,6452,-3.02E-6,-.0254,4.47E-17
CBAR,1561237,33,6452,6450,-5.56E-6,-.0254,-6.3E-19
CBAR,1561238,33,6450,6448,5.723E-6,-.0254,-4.6E-17
CBAR,1561239,33,6448,6446,-4.57E-7,-.0254,4.5E-17
CBAR,1561240,33,6446,6444,-9.27E-7,-.0254,0.
CBAR,1561241,33,6444,6442,-5.03E-6,-.0254,3.89E-21
CBAR,1561242,33,6442,6441,4.125E-6,-.0254,4.52E-17
CBAR,1561243,33,6441,3041,-2.56E-6,-.0254,4.52E-17
CBAR,1561244,33,3041,6752,3.995E-6,-.0254,4.52E-17
CBAR,1561245,33,6752,6753,-7.34E-8,-.0254,4.52E-17
CBAR,1561246,33,9057,7584,-4.55E-7,-.0254,0.
CBAR,1561247,33,7584,1282,-9.53E-7,-.0254,0.
CBAR,1561248,33,1282,6352,-3.5E-7,-.0254,3.99E-20
CBAR,1561249,33,6352,6351,-2.59E-7,-.0254,9.02E-17
CBAR,1561250,33,6351,6348,-1.94E-7,-.0254,-2.2E-20
CBAR,1561251,33,6348,6347,-1.35E-7,-.0254,1.54E-20
CBAR,1561252,33,6347,6344,-7.62E-8,-.0254,8.69E-21
CBAR,1561253,33,6344,6342,-4.57E-6,-.0254,8.97E-17
$ ... 12 like lines cut
CBAR,1561266,33,6318,6316,-2.64E-7,-.0254,-3.E-20
CBAR,1561267,33,6316,6314,-2.54E-7,-.0254,9.02E-17
CBAR,1561268,33,6314,6312,-2.03E-7,-.0254,0.
CBAR,1561269,33,6312,6311,-7.42E-8,-.0254,-9.1E-17
CBAR,1561270,33,6311,1236,1.22E-7,-.0254,-9.1E-17
CBAR,1561271,33,1236,9034,3.853E-7,-.0254,9.02E-17
CBAR,1561272,33,9034,9270,-4.65E-7,-.0254,-9.1E-17
CBAR,1561273,33,9054,8665,-2.25E-6,-.0254,1.19E-21
CBAR,1561274,33,8665,3117,-3.79E-7,-.0254,1.8E-16
CBAR,1561275,33,3117,6504,1.256E-7,-.0254,1.81E-16
CBAR,1561276,33,6504,6503,-2.85E-6,-.0254,3.23E-19
CBAR,1561277,33,6503,6501,-3.68E-7,-.0254,-1.8E-16
CBAR,1561278,33,6501,6498,3.345E-6,-.0254,1.81E-16
CBAR,1561279,33,6498,6747,5.532E-7,-.0254,-1.8E-16
CBAR,1561280,33,6747,6497,-9.68E-7,-.0254,1.81E-16
CBAR,1561281,33,6497,6495,-1.81E-7,-.0254,-1.8E-16
CBAR,1561282,33,6495,6491,-1.72E-8,-.0254,1.81E-16
CBAR,1561283,33,6491,6492,2.172E-8,-.0254,-1.8E-16
CBAR,1561284,33,6492,6587,-3.58E-7,-.0254,4.06E-20
CBAR,1561285,33,6587,6589,9.444E-8,-.0254,0.
CBAR,1561286,33,6589,6591,-1.96E-6,-.0254,-1.8E-16
$ ... 25 like lines cut
CBAR,1561312,33,6415,6416,-8.E-7,.0254,0.
CBAR,1561313,33,6416,6418,-1.57E-7,.0254,-1.8E-20
CBAR,1561314,33,6418,6420,-1.49E-7,.0254,-1.8E-16
CBAR,1561315,33,6420,6422,3.315E-7,.0254,1.81E-16
CBAR,1561316,33,6422,6425,-2.29E-7,.0254,0.
CBAR,1561317,33,6425,6426,-1.94E-7,.0254,0.
CBAR,1561318,33,6426,6428,9.098E-8,.0254,-1.8E-16
CBAR,1561319,33,6428,6430,1.404E-7,.0254,-1.6E-20
CBAR,1561320,33,6430,6432,2.741E-5,.0254,-3.3E-20
CBAR,1561321,33,6432,6434,3.965E-6,.0254,4.55E-19
CBAR,1561322,33,6434,6437,-9.14E-5,.0253999,-1.8E-16
CBAR,1561323,33,6437,6438,6.37E-6,.0254,-1.8E-16
CBAR,1561324,33,6438,2623,3.741E-5,.0254,1.85E-16
CBAR,1561325,33,2623,17,3.97E-7,.0254,-1.8E-16
CBAR,1561326,33,17,9051,2.868E-6,.0254,-1.3E-21
CBAR,1561327,33,9050,15,-1.73E-6,-.0254,0.
CBAR,1561328,33,15,2572,9.86E-7,-.0254,1.81E-16
CBAR,1561329,33,2572,6395,1.464E-5,-.0254,0.
CBAR,1561330,33,6395,6393,8.717E-7,-.0254,-9.9E-20
CBAR,1561331,33,6393,6391,8.717E-7,-.0254,0.
CBAR,1561332,33,6391,6183,8.717E-7,-.0254,-1.8E-16
$ ... 38 like lines cut
CBAR,1561483,33,6733,6691,1.723E-5,-.0254,-2.E-18
CBAR,1561484,33,6691,6688,-5.92E-7,-.0254,-6.6E-20
CBAR,1561485,33,6688,6729,-5.36E-7,-.0254,1.81E-16
CBAR,1561486,33,6729,6727,-9.58E-7,-.0254,0.
CBAR,1561487,33,6727,6488,-4.45E-5,-.0254,1.75E-16
CBAR,1561488,33,6488,6486,9.253E-5,-.025399,0.
CBAR,1561489,33,6486,6484,8.748E-5,-.025399,1.9E-16
CBAR,1561490,33,6484,3092,5.791E-5,-.025399,1.81E-16
CBAR,1561491,33,3092,182,-3.15E-5,-.0254,3.58E-18
CBAR,1561492,33,182,6774,2.534E-5,-.0254,1.83E-16
CBAR,1561493,33,9207,49,1.032E-5,.0254,-1.2E-18
CBAR,1561494,33,49,2578,2.216E-5,.0254,-2.5E-18
CBAR,1561495,33,2578,6396,2.814E-6,.0254,1.8E-16
CBAR,1561496,33,6396,6399,2.396E-6,.0254,-2.2E-21
CBAR,1561497,33,6399,6401,1.999E-6,.0254,1.81E-16
CBAR,1561498,33,6401,6403,1.577E-6,.0254,1.81E-16
CBAR,1561499,33,6403,6405,1.108E-6,.0254,1.25E-19
CBAR,1561500,33,6405,6407,-2.44E-5,.0254,-1.8E-16
CBAR,1561501,33,6407,6409,.0000251,.0254,2.85E-18
CBAR,1561502,33,6409,6411,-2.92E-7,.0254,1.8E-16
CBAR,1561503,33,6411,6413,-7.01E-7,.0254,0.
CBAR,1561504,33,6413,6414,-1.09E-6,.0254,-1.8E-16
CBAR,1561505,33,6414,6417,-1.45E-6,.0254,1.66E-19
CBAR,1561506,33,6417,6419,-1.79E-6,.0254,-2.E-19
CBAR,1561507,33,6419,6421,-2.1E-6,.0254,-2.4E-19
CBAR,1561508,33,6421,6423,-6.96E-5,.0253999,0.
CBAR,1561509,33,6423,6424,4.445E-5,.0254,-1.8E-16
CBAR,1561510,33,6424,6427,8.656E-6,.0254,7.77E-21
CBAR,1561511,33,6427,6429,3.284E-6,.0254,-1.8E-16
CBAR,1561512,33,6429,6431,-1.27E-6,.0254,-1.8E-16
CBAR,1561513,33,6431,6433,-3.76E-5,.0254,3.1E-20
CBAR,1561514,33,6433,6435,.0000188,.0254,1.83E-16
CBAR,1561515,33,6435,6436,-5.31E-5,.0254,1.81E-16
CBAR,1561516,33,6436,6439,2.606E-6,.0254,-3.E-19
CBAR,1561517,33,6439,2624,3.434E-5,.0254,-3.8E-18
CBAR,1561518,33,2624,18,-4.32E-6,.0254,0.
CBAR,1561519,33,18,8373,-3.5E-6,.0254,-1.8E-16
CBAR,1561520,33,7588,7587,3.429E-6,-.0254,-2.5E-21
CBAR,1561521,33,7587,1283,5.494E-6,-.0254,9.02E-17
CBAR,1561522,33,1283,6353,1.547E-5,-.0254,-8.9E-17
CBAR,1561523,33,6353,6350,-9.3E-6,-.0254,9.12E-17
CBAR,1561524,33,6350,6349,1.937E-6,-.0254,2.E-21
CBAR,1561525,33,6349,6346,1.687E-6,-.0254,1.92E-19
CBAR,1561526,33,6346,6345,7.976E-6,-.0254,-9.1E-17
CBAR,1561527,33,6345,6343,-5.44E-7,-.0254,9.02E-17
CBAR,1561528,33,6343,6340,3.439E-6,-.0254,3.94E-19
CBAR,1561529,33,6340,6338,3.302E-6,-.0254,-8.9E-17
CBAR,1561530,33,6338,6337,3.129E-6,-.0254,3.58E-19
CBAR,1561531,33,6337,6335,2.931E-6,-.0254,3.33E-19
CBAR,1561532,33,6335,6333,2.654E-6,-.0254,1.96E-21
CBAR,1561533,33,6333,6331,2.068E-6,-.0254,0.
CBAR,1561534,33,6331,6328,2.35E-6,-.0254,8.99E-17
CBAR,1561535,33,6328,6327,1.688E-6,-.0254,1.95E-21
CBAR,1561536,33,6327,6325,1.277E-6,-.0254,1.46E-19
CBAR,1561537,33,6325,6322,8.616E-7,-.0254,-8.9E-17
CBAR,1561538,33,6322,6321,4.183E-7,-.0254,4.75E-20
CBAR,1561539,33,6321,6319,-2.64E-8,-.0254,-3.E-21
CBAR,1561540,33,6319,6317,-4.88E-7,-.0254,9.02E-17
CBAR,1561541,33,6317,6315,-9.6E-7,-.0254,-9.1E-17
CBAR,1561542,33,6315,6313,-1.39E-6,-.0254,-1.6E-19
CBAR,1561543,33,6313,6310,-1.87E-6,-.0254,-9.1E-17
CBAR,1561544,33,6310,1237,-2.37E-6,-.0254,9.04E-17
CBAR,1561545,33,1237,180,-3.45E-5,-.0254,3.94E-18
CBAR,1561546,33,180,6895,-.00003,-.0254,9.37E-17
CBAR,1561547,33,8616,99,.0000352,.0254,-4.1E-18
CBAR,1561548,33,99,3042,2.659E-5,.0254,-4.8E-17
CBAR,1561549,33,3042,6440,-1.54E-5,.0254,0.
CBAR,1561550,33,6440,6443,-1.13E-6,.0254,-1.3E-19
CBAR,1561551,33,6443,6445,3.254E-6,.0254,0.
CBAR,1561552,33,6445,6447,-5.46E-6,.0254,-4.6E-17
CBAR,1561553,33,6447,6449,5.118E-6,.0254,5.82E-19
CBAR,1561554,33,6449,6451,-4.45E-6,.0254,-5.1E-19
CBAR,1561555,33,6451,6453,1.515E-5,.0254,-4.6E-17
CBAR,1561556,33,6453,6454,3.526E-6,.0254,-4.1E-19
CBAR,1561557,33,6454,6456,-3.79E-5,.0254,4.09E-17
CBAR,1561558,33,6456,6458,3.924E-5,.0254,4.52E-17
CBAR,1561559,33,6458,6461,-4.62E-5,.0254,4.52E-17
$ ... 5 like lines cut
CBAR,1561565,33,6471,6473,-4.8E-5,.0254,-3.E-20
CBAR,1561566,33,6473,6475,-7.49E-6,.0254,-4.3E-17
CBAR,1561567,33,6475,6477,-2.87E-6,.0254,-4.6E-17
CBAR,1561568,33,6477,6479,2.939E-7,.0254,3.38E-20
CBAR,1561569,33,6479,6481,7.33E-6,.0254,0.
CBAR,1561570,33,6481,6483,1.44E-6,.0254,-1.6E-19
CBAR,1561571,33,6483,24,1.532E-5,.0254,0.
CBAR,1561572,33,24,82,-3.99E-6,.0254,-4.6E-19
CBAR,1561573,33,82,8647,-5.69E-6,.0254,-6.6E-19
CBAR,1561574,33,8904,81,-4.88E-7,-.0254,5.56E-20
CBAR,1561575,33,81,901,1.199E-5,-.0254,1.36E-18
CBAR,1561576,33,901,6289,1.288E-6,-.0254,1.47E-19
CBAR,1561577,33,6289,6290,3.038E-5,-.0254,-3.3E-20
CBAR,1561578,33,6290,6292,2.201E-5,-.0254,0.
CBAR,1561579,33,6292,6294,1.696E-5,-.0254,1.6E-20
CBAR,1561580,33,6294,6296,-1.93E-5,-.0254,4.8E-20
CBAR,1561581,33,6296,6298,-1.8E-5,-.0254,0.
CBAR,1561582,33,6298,6300,-4.12E-5,-.0254,-4.6E-18
CBAR,1561583,33,6300,6302,-4.1E-18,-.0254,0.
CBAR,1561584,33,6302,6304,-2.18E-5,-.0254,2.46E-18
CBAR,1561585,33,6304,6306,-6.63E-5,-.025399,0.
$ ... 11 like lines cut
CBAR,1561597,33,6269,6266,-5.03E-5,-.0254,-3.E-20
CBAR,1561598,33,6266,873,4.379E-5,-.0254,-5.1E-18
CBAR,1561599,33,873,98,-3.89E-6,-.0254,-4.3E-19
CBAR,1561600,33,98,6918,-2.13E-5,-.0254,2.42E-18
CBAR,1561921,33,7554,7553,-.015267,-.020299,2.31E-15
CBAR,1561922,33,7553,1231,-.015274,-.020294,1.74E-15
CBAR,1561923,33,1231,1227,-.015204,-.020346,-1.1E-15
CBAR,1561924,33,1227,1225,-.015324,-.020256,1.74E-15
CBAR,1561925,33,1225,1223,-.015268,-.020298,1.74E-15
CBAR,1561926,33,1223,1221,-.015307,-.020269,-1.8E-15
CBAR,1561927,33,1221,1219,-.015271,-.020296,1.73E-15
CBAR,1561928,33,1219,1217,-.01527,-.020297,0.
CBAR,1561929,33,1217,1215,-.015261,-.020304,-1.1E-15
CBAR,1561930,33,1215,1213,-.015279,-.02029,-1.8E-15
CBAR,1561931,33,1213,1211,-.01527,-.020296,-1.7E-15
CBAR,1561932,33,1211,1209,-.01527,-.020297,-1.7E-15
CBAR,1561933,33,1209,1207,-.01527,-.020297,1.75E-15
CBAR,1561934,33,1207,1205,-.01527,-.020297,-2.3E-15
CBAR,1561935,33,1205,1203,-.01527,-.020296,-5.3E-18
CBAR,1561936,33,1203,1201,-.01527,-.020297,-1.7E-15
CBAR,1561937,33,1201,1199,-.015271,-.020296,1.16E-15
$ ... 364 like lines cut
CBAR,1565397,33,7030,8894,.0028638,.0252381,-3.E-17
CBAR,1565398,33,6953,6956,-.004208,-.025049,3.58E-16
CBAR,1565399,33,6956,356,-.004209,-.025048,0.
CBAR,1565400,33,356,6259,-.004208,-.025048,-8.4E-16
CBAR,1565401,33,6259,6261,-.004208,-.025048,0.
CBAR,1565402,33,6261,6263,-.004208,-.025048,0.
CBAR,1565403,33,6263,362,-.004208,-.025048,-3.6E-16
CBAR,1565404,33,362,364,-.004208,-.025048,0.
CBAR,1565405,33,364,366,-.004208,-.025048,-3.6E-18
CBAR,1565406,33,366,368,-.004208,-.025048,-3.6E-18
CBAR,1565407,33,368,370,-.004208,-.025048,0.
CBAR,1565408,33,370,372,-.004208,-.025048,3.58E-16
CBAR,1565409,33,372,374,-.004208,-.025048,0.
CBAR,1565410,33,374,376,-.004208,-.025048,3.56E-16
CBAR,1565411,33,376,378,-.004208,-.025048,-3.6E-18
CBAR,1565412,33,378,380,-.004208,-.025048,-8.4E-16
CBAR,1565413,33,380,382,-.004208,-.025048,4.75E-16
CBAR,1565414,33,382,384,-.004208,-.025048,0.
CBAR,1565415,33,384,386,-.004208,-.025048,0.
CBAR,1565416,33,386,388,-.004208,-.025048,-8.4E-16
CBAR,1565417,33,388,390,-.004208,-.025048,3.53E-16
$ ... 177 like lines cut
CBAR,1565595,33,522,524,.0074292,.0242892,5.E-16
CBAR,1565596,33,524,526,.0074292,.0242892,3.45E-16
CBAR,1565597,33,526,528,.0074292,.0242892,3.48E-16
CBAR,1565598,33,528,530,.0074292,.0242892,-5.1E-16
CBAR,1565599,33,530,532,.0074292,.0242892,0.
CBAR,1565600,33,532,534,.0074292,.0242892,-8.4E-16
CBAR,1565601,33,534,536,.0074292,.0242892,-8.4E-16
CBAR,1565602,33,536,538,.0074292,.0242892,-5.1E-16
CBAR,1565603,33,538,540,.0074548,.0242814,0.
CBAR,1565604,33,540,542,.0074039,.024297,4.95E-16
CBAR,1565605,33,542,544,.0074292,.0242892,-8.4E-16
CBAR,1565606,33,544,546,.0074292,.0242892,0.
CBAR,1565607,33,546,548,.0074292,.0242892,3.5E-16
CBAR,1565608,33,548,550,.0074292,.0242892,1.19E-15
CBAR,1565609,33,550,552,.0074292,.0242892,4.93E-16
CBAR,1565610,33,552,554,.0074292,.0242892,0.
CBAR,1565611,33,554,558,.0074292,.0242892,8.43E-16
CBAR,1565612,33,558,7155,.0075238,.0242601,5.11E-16
CBAR,1565613,33,7155,7158,.0073322,.0243187,-3.3E-16
CBAR,1565614,33,6937,6940,-.008578,-.023907,6.35E-16
CBAR,1565615,33,6940,564,-.008806,-.023824,-3.3E-16
$ ... 19 like lines cut
CBAR,1565635,33,599,601,-.008692,-.023866,-3.E-16
CBAR,1565636,33,601,603,-.008692,-.023866,6.86E-16
CBAR,1565637,33,603,605,-.008692,-.023866,-5.8E-18
CBAR,1565638,33,605,609,-.008692,-.023866,-6.9E-18
CBAR,1565639,33,609,7185,-.008692,-.023866,-9.9E-16
CBAR,1565640,33,7185,7187,-.008692,-.023866,-6.9E-16
CBAR,1565641,33,9198,200,.0086932,.0238661,6.78E-16
CBAR,1565642,33,200,610,.0086924,.0238663,6.76E-16
CBAR,1565643,33,610,606,.0086928,.0238662,0.
CBAR,1565644,33,606,604,.0086928,.0238662,0.
CBAR,1565645,33,604,602,.0086928,.0238662,-9.9E-16
CBAR,1565646,33,602,600,.0086928,.0238662,9.83E-16
CBAR,1565647,33,600,598,.0086928,.0238662,-9.9E-16
CBAR,1565648,33,598,596,.0086928,.0238662,9.88E-16
CBAR,1565649,33,596,593,.0086928,.0238662,0.
CBAR,1565650,33,593,591,.0086928,.0238662,-6.3E-18
CBAR,1565651,33,591,589,.0086928,.0238662,0.
CBAR,1565652,33,589,587,.0086928,.0238662,-6.3E-16
CBAR,1565653,33,587,585,.0086928,.0238662,-3.3E-16
CBAR,1565654,33,585,583,.0086928,.0238662,-9.9E-16
CBAR,1565655,33,583,582,.0086928,.0238662,0.
$ ... 124 like lines cut
CBAR,1565780,33,721,724,-.012551,-.022082,-3.E-16
CBAR,1565781,33,724,726,-.012551,-.022082,0.
CBAR,1565782,33,726,728,-.012551,-.022082,6.27E-16
CBAR,1565783,33,728,730,-.012551,-.022082,0.
CBAR,1565784,33,730,732,-.012551,-.022082,-6.3E-16
CBAR,1565785,33,732,734,-.012551,-.022082,-5.8E-18
CBAR,1565786,33,734,736,-.012551,-.022082,-5.8E-18
CBAR,1565787,33,736,738,-.012551,-.022082,-1.4E-15
CBAR,1565788,33,738,740,-.012551,-.022082,-1.4E-15
CBAR,1565789,33,740,742,-.012551,-.022082,6.3E-16
CBAR,1565790,33,742,744,-.012551,-.022082,0.
CBAR,1565791,33,744,746,-.012551,-.022082,-6.3E-16
CBAR,1565792,33,746,748,-.012551,-.022082,5.38E-18
CBAR,1565793,33,748,750,-.012551,-.022082,-2.1E-15
CBAR,1565794,33,750,752,-.012551,-.022082,-6.3E-16
CBAR,1565795,33,752,754,-.012551,-.022082,-1.4E-15
CBAR,1565796,33,754,756,-.012551,-.022082,-6.3E-16
CBAR,1565797,33,756,758,-.012551,-.022082,8.08E-16
CBAR,1565798,33,758,760,-.012551,-.022082,1.43E-15
CBAR,1565799,33,760,762,-.012551,-.022082,5.03E-18
CBAR,1565800,33,762,766,-.012551,-.022082,-6.1E-16
$ ... 24 like lines cut
CBAR,1565825,33,723,722,.0125514,.0220822,-3.E-16
CBAR,1565826,33,722,719,.0125514,.0220822,1.74E-15
CBAR,1565827,33,719,720,.0125514,.0220822,-1.4E-15
CBAR,1565828,33,720,6928,.0126424,.0220302,-4.8E-18
CBAR,1565829,33,6928,6925,.01246,.0221339,-1.1E-15
CBAR,1565830,33,6929,6932,-.013904,-.021256,-1.6E-15
CBAR,1565831,33,6932,667,-.014031,-.021172,-1.9E-15
CBAR,1565832,33,667,666,-.013968,-.021214,1.28E-15
CBAR,1565833,33,666,669,-.013968,-.021214,-9.9E-16
CBAR,1565834,33,669,671,-.013968,-.021214,9.96E-16
CBAR,1565835,33,671,673,-.013968,-.021214,-6.1E-16
CBAR,1565836,33,673,675,-.013968,-.021214,0.
CBAR,1565837,33,675,677,-.013968,-.021214,-1.6E-15
CBAR,1565838,33,677,679,-.013968,-.021214,-1.6E-15
CBAR,1565839,33,679,681,-.013968,-.021214,-5.8E-18
CBAR,1565840,33,681,683,-.013968,-.021214,5.69E-18
CBAR,1565841,33,683,685,-.013968,-.021214,-5.6E-18
CBAR,1565842,33,685,687,-.013968,-.021214,-5.6E-18
CBAR,1565843,33,687,689,-.013968,-.021214,-1.1E-17
CBAR,1565844,33,689,691,-.013968,-.021214,0.
CBAR,1565845,33,691,693,-.013968,-.021214,6.1E-16
$ ... 1742 like lines cut
CBAR,1568290,33,11080,11081,.0098986,.0233919,-3.E-21
CBAR,1568291,33,11081,662,.0098986,.0233919,1.12E-15
CBAR,1568292,33,7215,7214,.0098981,.0233921,-3.63E-7
CBAR,1568293,33,7214,11457,.0098981,.0233921,-3.63E-7
CBAR,1568294,33,11457,11458,.0098981,.0233921,-3.63E-7
CBAR,1568295,33,11458,202,.0098981,.0233921,-3.63E-7
$,Elements,and,Element,Properties,for,region,:,pbar.34
PBAR,34,2,.0011355,5.115E-7,2.836E-6,9.769E-9
$,Pset:,"pbar.34",will,be,imported,as:,"pbar.34"
CBAR,1556496,34,6267,6510,-.0254,0.,0.
,,,0.,0.,-.1524,0.,0.,-.1524
CBAR,1556497,34,6510,6441,-.0254,0.,0.
,,,0.,0.,-.1524,0.,0.,-.1524
CBAR,1556498,34,6441,6509,-.0254,0.,0.
,,,0.,0.,-.1524,0.,0.,-.1524
CBAR,1556499,34,6509,6311,-.0254,0.,0.
,,,0.,0.,-.1524,0.,0.,-.1524
CBAR,1556500,34,6311,6508,-.0254,0.,0.
,,,0.,0.,-.1524,0.,0.,-.1524
CBAR,1556501,34,6508,6485,-.0254,0.,0.
,,,0.,0.,-.1524,0.,0.,-.1524
CBAR,1556502,34,6485,6507,-.0254,0.,0.
,,,0.,0.,-.1524,0.,0.,-.1524
CBAR,1556503,34,6507,6397,-.0254,0.,0.
,,,0.,0.,-.1524,0.,0.,-.1524
CBAR,1556504,34,6397,6506,-.0254,0.,0.
,,,0.,0.,-.1524,0.,0.,-.1524
CBAR,1556505,34,6506,6355,-.0254,0.,0.
,,,0.,0.,-.1524,0.,0.,-.1524
CBAR,1556530,34,1182,4001,-.0254,0.,0.
,,,0.,0.,-.1524,0.,0.,-.1524
CBAR,1556531,34,4001,2219,-.0254,0.,0.
,,,0.,0.,-.1524,0.,0.,-.1524
CBAR,1556532,34,2219,3999,-.0254,0.,0.
,,,0.,0.,-.1524,0.,0.,-.1524
CBAR,1556533,34,3999,231,-.0254,0.,0.
,,,0.,0.,-.1524,0.,0.,-.1524
CBAR,1556534,34,231,232,-.0254,0.,0.
,,,0.,0.,-.1524,0.,0.,-.1524
CBAR,1556535,34,232,1701,-.0254,0.,0.
,,,0.,0.,-.1524,0.,0.,-.1524
CBAR,1556536,34,1701,3637,-.0254,0.,0.
,,,0.,0.,-.1524,0.,0.,-.1524
CBAR,1556537,34,3637,989,-.0254,0.,0.
,,,0.,0.,-.1524,0.,0.,-.1524
CBAR,1556538,34,989,3635,-.0254,0.,0.
,,,0.,0.,-.1524,0.,0.,-.1524
CBAR,1556608,34,6268,6511,-.0254,0.,0.
,,,0.,0.,-.1524,0.,0.,-.1524
$ ... 1824 like lines cut
CBAR,1565913,34,669,1225,-.023669,.0092139,-3.E-15
,,,0.,0.,-.1524,0.,0.,-.1524
CBAR,1565914,34,6391,6190,-.023554,.0095039,2.69E-15
,,,0.,0.,-.1524,0.,0.,-.1524
CBAR,1565915,34,6190,6253,-.023557,.0094969,0.
,,,0.,0.,-.1524,0.,0.,-.1524
CBAR,1565916,34,6253,6263,-.023556,.0095009,-1.4E-16
,,,0.,0.,-.1524,0.,0.,-.1524
CBAR,1565917,34,6263,446,-.023556,.0095014,1.09E-17
,,,0.,0.,-.1524,0.,0.,-.1524
CBAR,1565918,34,446,464,-.023557,.0094988,0.
,,,0.,0.,-.1524,0.,0.,-.1524
CBAR,1565919,34,464,550,-.023557,.009498,2.79E-15
,,,0.,0.,-.1524,0.,0.,-.1524
CBAR,1565920,34,550,568,-.023555,.009502,-2.8E-15
,,,0.,0.,-.1524,0.,0.,-.1524
CBAR,1565921,34,568,620,-.023556,.0094996,1.32E-16
,,,0.,0.,-.1524,0.,0.,-.1524
CBAR,1565922,34,620,810,-.023556,.0095005,1.35E-16
,,,0.,0.,-.1524,0.,0.,-.1524
CBAR,1565923,34,810,723,-.023556,.0094999,-2.8E-15
,,,0.,0.,-.1524,0.,0.,-.1524
CBAR,1565924,34,723,671,-.023556,.0094997,2.67E-15
,,,0.,0.,-.1524,0.,0.,-.1524
CBAR,1565925,34,671,1223,-.023558,.0094942,-3.E-15
,,,0.,0.,-.1524,0.,0.,-.1524
CBAR,1565926,34,6183,6182,-.023438,.0097874,-6.6E-17
,,,0.,0.,-.1524,0.,0.,-.1524
CBAR,1565927,34,6182,6251,-.023435,.0097941,2.67E-15
,,,0.,0.,-.1524,0.,0.,-.1524
CBAR,1565928,34,6251,362,-.023439,.0097865,-2.5E-15
,,,0.,0.,-.1524,0.,0.,-.1524
CBAR,1565929,34,362,444,-.023447,.0097659,2.53E-15
,,,0.,0.,-.1524,0.,0.,-.1524
CBAR,1565930,34,444,466,-.023441,.0097797,-2.5E-15
,,,0.,0.,-.1524,0.,0.,-.1524
CBAR,1565931,34,466,548,-.023445,.0097702,-1.5E-16
,,,0.,0.,-.1524,0.,0.,-.1524
CBAR,1565932,34,548,570,-.023435,.0097956,1.39E-16
,,,0.,0.,-.1524,0.,0.,-.1524
CBAR,1565933,34,570,622,-.023441,.0097798,1.25E-16
,,,0.,0.,-.1524,0.,0.,-.1524
CBAR,1565934,34,622,808,-.023443,.0097759,2.79E-15
,,,0.,0.,-.1524,0.,0.,-.1524
CBAR,1565935,34,808,725,-.023439,.0097861,2.67E-15
,,,0.,0.,-.1524,0.,0.,-.1524
CBAR,1565936,34,725,673,-.023438,.009787,2.82E-16
,,,0.,0.,-.1524,0.,0.,-.1524
CBAR,1565937,34,673,1221,-.023444,.0097736,-2.8E-16
,,,0.,0.,-.1524,0.,0.,-.1524
CBAR,1565938,34,6389,6192,-.023319,.0100677,-2.8E-15
,,,0.,0.,-.1524,0.,0.,-.1524
CBAR,1565939,34,6192,6249,-.023316,.0100758,1.46E-16
,,,0.,0.,-.1524,0.,0.,-.1524
CBAR,1565940,34,6249,364,-.023318,.0100698,2.79E-15
,,,0.,0.,-.1524,0.,0.,-.1524
CBAR,1565941,34,364,442,-.023326,.0100511,2.51E-15
,,,0.,0.,-.1524,0.,0.,-.1524
CBAR,1565942,34,442,468,-.023329,.0100452,2.51E-15
,,,0.,0.,-.1524,0.,0.,-.1524
CBAR,1565943,34,468,546,-.023325,.0100544,-1.1E-17
,,,0.,0.,-.1524,0.,0.,-.1524
CBAR,1565944,34,546,572,-.023322,.0100606,1.54E-16
,,,0.,0.,-.1524,0.,0.,-.1524
CBAR,1565945,34,572,624,-.023323,.0100596,-1.4E-16
$ ... 295 like lines cut
CBAR,1566093,34,699,1195,-.021782,.0130642,-3.E-17
,,,0.,0.,-.1524,0.,0.,-.1524
CBAR,1566094,34,6363,6218,-.021648,.013285,2.39E-15
,,,0.,0.,-.1524,0.,0.,-.1524
CBAR,1566095,34,6218,312,-.021651,.0132808,2.47E-15
,,,0.,0.,-.1524,0.,0.,-.1524
CBAR,1566096,34,312,390,-.021649,.0132836,-2.5E-15
,,,0.,0.,-.1524,0.,0.,-.1524
CBAR,1566097,34,390,416,-.02165,.0132823,-2.3E-15
,,,0.,0.,-.1524,0.,0.,-.1524
CBAR,1566098,34,416,494,-.02165,.0132815,2.46E-15
,,,0.,0.,-.1524,0.,0.,-.1524
CBAR,1566099,34,494,520,-.021649,.0132833,-2.E-16
,,,0.,0.,-.1524,0.,0.,-.1524
CBAR,1566100,34,520,597,-.02165,.0132819,-1.9E-16
,,,0.,0.,-.1524,0.,0.,-.1524
CBAR,1566101,34,597,649,-.021651,.01328,-2.8E-15
,,,0.,0.,-.1524,0.,0.,-.1524
CBAR,1566102,34,649,779,-.02165,.0132824,-3.8E-16
,,,0.,0.,-.1524,0.,0.,-.1524
CBAR,1566103,34,779,753,-.021647,.0132865,2.1E-15
,,,0.,0.,-.1524,0.,0.,-.1524
CBAR,1566104,34,753,701,-.021649,.0132836,-2.4E-15
,,,0.,0.,-.1524,0.,0.,-.1524
CBAR,1566105,34,701,1193,-.021651,.0132808,0.
,,,0.,0.,-.1524,0.,0.,-.1524
CBAR,1566106,34,6361,6220,-.021513,.013503,1.14E-16
,,,0.,0.,-.1524,0.,0.,-.1524
CBAR,1566107,34,6220,310,-.021516,.0134986,-2.4E-15
,,,0.,0.,-.1524,0.,0.,-.1524
CBAR,1566108,34,310,392,-.021513,.0135023,-2.4E-15
,,,0.,0.,-.1524,0.,0.,-.1524
CBAR,1566109,34,392,414,-.021514,.0135011,2.25E-15
,,,0.,0.,-.1524,0.,0.,-.1524
CBAR,1566110,34,414,496,-.021515,.0134997,-2.3E-15
,,,0.,0.,-.1524,0.,0.,-.1524
CBAR,1566111,34,496,518,-.021515,.0134993,1.76E-16
,,,0.,0.,-.1524,0.,0.,-.1524
CBAR,1566112,34,518,599,-.021514,.0135008,2.07E-16
,,,0.,0.,-.1524,0.,0.,-.1524
CBAR,1566113,34,599,651,-.021513,.0135035,2.45E-15
,,,0.,0.,-.1524,0.,0.,-.1524
CBAR,1566114,34,651,777,-.021514,.0135014,0.
,,,0.,0.,-.1524,0.,0.,-.1524
CBAR,1566115,34,777,755,-.021514,.013501,0.
,,,0.,0.,-.1524,0.,0.,-.1524
CBAR,1566116,34,755,703,-.021515,.0135005,0.
,,,0.,0.,-.1524,0.,0.,-.1524
CBAR,1566117,34,703,1191,-.021515,.0135006,2.82E-15
,,,0.,0.,-.1524,0.,0.,-.1524
CBAR,1566118,34,6359,6222,-.021377,.0137167,2.27E-15
,,,0.,0.,-.1524,0.,0.,-.1524
CBAR,1566119,34,6222,308,-.021379,.0137145,1.59E-17
$ ... 597 like lines cut
$,Elements,and,Element,Properties,for,region,:,pbar.35
PBAR,35,2,.0001064,4.328E-8,2.06E-11,8.13E-11
$,Pset:,"pbar.35",will,be,imported,as:,"pbar.35"
CBAR,34355,35,8385,13051,.0152706,.020297,4.826E-6
CBAR,34436,35,2709,8425,.0152706,.020297,4.826E-6
CBAR,34448,35,2697,8419,.0152706,.020297,4.826E-6
CBAR,34449,35,8419,13082,.0152706,.020297,4.826E-6
CBAR,34568,35,2783,13148,.0152706,.020297,4.826E-6
CBAR,34569,35,13148,13147,.0152706,.020297,4.826E-6
CBAR,34650,35,1414,7664,.0152706,.020297,4.826E-6
CBAR,34669,35,7655,12012,.0152706,.020297,4.826E-6
CBAR,34751,35,12137,12136,.0152706,.020297,4.826E-6
CBAR,34752,35,1570,12135,.0152706,.020297,4.826E-6
CBAR,34780,35,9249,12106,.0152706,.020297,4.826E-6
CBAR,34962,35,1830,12360,.0152706,.020297,4.826E-6
CBAR,36581,35,8049,2085,.0152706,.020297,4.826E-6
CBAR,36582,35,12613,8048,.0152706,.020297,4.826E-6
CBAR,36810,35,12072,12074,.0152706,.020297,4.826E-6
CBAR,36811,35,12074,1494,.0152706,.020297,4.826E-6
CBAR,37595,35,7766,7767,.0152706,.020297,4.826E-6
CBAR,37596,35,12102,7765,.0152706,.020297,4.826E-6
CBAR,37597,35,7765,1591,.0152706,.020297,4.826E-6
CBAR,37598,35,12101,10728,.0152706,.020297,4.826E-6
$ ... 3837 like lines cut
CBAR,1563262,35,56,3578,-.015523,-.020104,-3.E-18
CBAR,1563263,35,3578,1910,-.015063,-.020451,-1.2E-15
CBAR,1563264,35,1910,1911,-.015308,-.020268,0.
CBAR,1563265,35,1911,1914,-.015392,-.020204,2.97E-18
CBAR,1563266,35,1914,1916,-.015264,-.020301,-1.1E-15
CBAR,1563267,35,1916,1918,-.015255,-.020308,1.73E-15
CBAR,1563268,35,1918,1920,-.015318,-.020261,-1.8E-15
CBAR,1563269,35,1920,1922,-.015223,-.020332,2.92E-18
CBAR,1563270,35,1922,1924,-.01531,-.020267,0.
CBAR,1563271,35,1924,1926,-.015281,-.020289,1.74E-15
CBAR,1563272,35,1926,1928,-.015267,-.020299,2.92E-18
CBAR,1563273,35,1928,1930,-.015262,-.020303,1.74E-15
CBAR,1563274,35,1930,1932,-.01527,-.020296,-2.8E-18
CBAR,1563275,35,1932,1934,-.01528,-.020289,2.9E-18
CBAR,1563276,35,1934,1936,-.015273,-.020295,0.
CBAR,1563277,35,1936,1938,-.015293,-.020279,-1.2E-15
CBAR,1563278,35,1938,1940,-.01527,-.020297,1.74E-15
CBAR,1563279,35,1940,1942,-.015261,-.020303,2.9E-15
CBAR,1563280,35,1942,1944,-.015275,-.020293,-1.7E-15
CBAR,1563281,35,1944,1946,-.015262,-.020303,-2.8E-18
CBAR,1563282,35,1946,1948,-.015282,-.020288,-1.7E-15
$ ... 29 like lines cut
CBAR,1563312,35,1909,4333,.0150663,.0204492,3.E-18
CBAR,1563313,35,4333,10802,.0152706,.020297,1.16E-15
CBAR,1563314,35,10802,10803,.0152726,.0202955,-1.2E-15
CBAR,1563315,35,10809,135,-.015264,-.020301,1.15E-15
CBAR,1563316,35,135,2726,-.015277,-.020292,-1.7E-15
CBAR,1563317,35,2726,2723,-.015243,-.020317,5.77E-16
CBAR,1563318,35,2723,2721,-.015258,-.020306,-5.8E-16
CBAR,1563319,35,2721,2719,-.01522,-.020334,1.16E-15
CBAR,1563320,35,2719,2717,-.015301,-.020274,2.9E-15
CBAR,1563321,35,2717,2715,-.015292,-.02028,-1.7E-15
CBAR,1563322,35,2715,2713,-.015276,-.020292,1.15E-15
CBAR,1563323,35,2713,2711,-.015262,-.020303,0.
CBAR,1563324,35,2711,2709,-.015288,-.020283,1.75E-15
CBAR,1563325,35,2709,2707,-.015257,-.020306,1.73E-15
CBAR,1563326,35,2707,2705,-.015273,-.020294,1.74E-15
CBAR,1563327,35,2705,2703,-.015263,-.020302,1.74E-15
CBAR,1563328,35,2703,2701,-.015274,-.020294,-1.1E-15
CBAR,1563329,35,2701,2699,-.015301,-.020273,2.9E-15
CBAR,1563330,35,2699,2697,-.015256,-.020307,2.82E-18
CBAR,1563331,35,2697,2695,-.015292,-.02028,0.
CBAR,1563332,35,2695,2693,-.01527,-.020297,-1.8E-15
$ ... 226 like lines cut
CBAR,1563559,35,228,1393,.0152706,.020297,-3.E-18
CBAR,1563560,35,1393,1390,.0152706,.020297,1.74E-15
CBAR,1563561,35,1390,1395,.0152575,.0203068,-2.8E-15
CBAR,1563562,35,1395,1397,.0152792,.0202906,-1.7E-15
CBAR,1563563,35,1397,1399,.015263,.0203027,1.15E-15
CBAR,1563564,35,1399,1401,.0152689,.0202983,1.74E-15
CBAR,1563565,35,1401,1403,.0152547,.020309,1.73E-15
CBAR,1563566,35,1403,1405,.0154578,.0201548,1.15E-15
CBAR,1563567,35,1405,1407,.0150961,.0204272,-1.2E-15
CBAR,1563568,35,1407,1409,.0154057,.0201947,2.67E-18
CBAR,1563569,35,1409,1411,.0153582,.0202308,-1.1E-15
CBAR,1563570,35,1411,1413,.0152563,.0203077,-1.1E-15
CBAR,1563571,35,1413,1415,.0151717,.0203711,0.
CBAR,1563572,35,1415,1417,.0152036,.0203473,1.15E-15
CBAR,1563573,35,1417,1419,.0151747,.0203688,-1.2E-15
CBAR,1563574,35,1419,1421,.015264,.020302,-5.8E-16
CBAR,1563575,35,1421,1423,.0152641,.0203019,-5.8E-16
CBAR,1563576,35,1423,1425,.0152646,.0203015,2.64E-18
CBAR,1563577,35,1425,1427,.0153716,.0202207,-2.5E-18
CBAR,1563578,35,1427,1429,.0153616,.0202282,5.23E-18
CBAR,1563579,35,1429,1431,.0151486,.0203883,5.66E-16
$ ... 533 like lines cut
$,Elements,and,Element,Properties,for,region,:,pshell.16
PSHELL,16,1,{t1},1,,1
$,Pset:,"pshell.16",will,be,imported,as:,"pshell.16"
CQUAD4,2305,16,657,770,771,661,0.,0.
CQUAD4,2306,16,605,657,661,609,0.,0.
CQUAD4,2307,16,511,605,609,512,0.,0.
CQUAD4,2308,16,502,511,512,503,0.,0.
CQUAD4,2309,16,407,502,503,408,0.,0.
CQUAD4,2310,16,398,407,408,400,0.,0.
CQUAD4,2311,16,302,398,400,303,0.,0.
CQUAD4,2349,16,450,454,460,459,0.,0.
CQUAD4,2350,16,558,554,459,460,0.,0.
CQUAD4,2351,16,564,563,554,558,0.,0.
CQUAD4,2352,16,616,615,563,564,0.,0.
CQUAD4,2353,16,818,814,615,616,0.,0.
CQUAD4,2411,16,462,448,450,459,0.,0.
CQUAD4,2412,16,312,390,392,310,0.,0.
CQUAD4,2413,16,314,388,390,312,0.,0.
CQUAD4,2414,16,316,386,388,314,0.,0.
CQUAD4,2415,16,318,384,386,316,0.,0.
CQUAD4,2416,16,320,382,384,318,0.,0.
CQUAD4,2418,16,388,418,416,390,0.,0.
CQUAD4,2419,16,386,420,418,388,0.,0.
$ ... 2366 like lines cut
$,Elements,and,Element,Properties,for,region,:,pshell.17
PSHELL,17,1,{t2},1,,1
$,Pset:,"pshell.17",will,be,imported,as:,"pshell.17"
CQUAD4,60,17,231,232,233,234,0.,0.
CQUAD4,61,17,235,236,237,238,0.,0.
CQUAD4,1921,17,1170,3631,3632,1174,0.,0.
CQUAD4,1922,17,1331,3633,3634,1335,0.,0.
CQUAD4,1923,17,989,3635,3636,991,0.,0.
CQUAD4,1924,17,1701,3637,3638,1700,0.,0.
CQUAD4,1927,17,3642,987,985,3643,0.,0.
CQUAD4,1928,17,3635,989,987,3642,0.,0.
CQUAD4,1929,17,3644,3645,1306,154,0.,0.
CQUAD4,1930,17,3646,1309,1306,3645,0.,0.
CQUAD4,1931,17,3648,1329,1326,3647,0.,0.
CQUAD4,1932,17,3648,3633,1331,1329,0.,0.
CQUAD4,1938,17,3656,3657,1147,1145,0.,0.
CQUAD4,1939,17,3658,3656,1145,1143,0.,0.
CQUAD4,1940,17,3659,3658,1143,1141,0.,0.
CQUAD4,1941,17,3660,3659,1141,1139,0.,0.
CQUAD4,1942,17,3661,3660,1139,1136,0.,0.
CQUAD4,1943,17,3661,1136,1134,3662,0.,0.
CQUAD4,1972,17,1150,3691,3646,1149,0.,0.
CQUAD4,1977,17,3662,3694,2928,2926,0.,0.
$ ... 1842 like lines cut
$,Elements,and,Element,Properties,for,region,:,pshell.18
PSHELL,18,1,{t3},1,,1
$,Pset:,"pshell.18",will,be,imported,as:,"pshell.18"
CQUAD4,1869,18,3544,3545,1386,1382,0.,0.
CQUAD4,1870,18,3546,3547,1131,1127,0.,0.
CQUAD4,1871,18,3548,3549,2164,2160,0.,0.
CQUAD4,1872,18,3550,3551,2984,2980,0.,0.
CQUAD4,1873,18,3552,3553,2112,2108,0.,0.
CQUAD4,1874,18,3554,3555,1906,1902,0.,0.
CQUAD4,1875,18,3556,3557,1802,1798,0.,0.
CQUAD4,1876,18,3558,3559,1643,1639,0.,0.
CQUAD4,1877,18,3560,3561,1539,1535,0.,0.
CQUAD4,1912,18,1596,3613,3614,1597,0.,0.
CQUAD4,1913,18,1753,3615,3616,1756,0.,0.
CQUAD4,1914,18,1857,3617,3618,1860,0.,0.
CQUAD4,1915,18,2063,3619,3620,2066,0.,0.
CQUAD4,1916,18,2935,3621,3622,2938,0.,0.
CQUAD4,1917,18,2115,3623,3624,2118,0.,0.
CQUAD4,1918,18,1082,3625,3626,1085,0.,0.
CQUAD4,1919,18,1339,3627,3628,1340,0.,0.
CQUAD4,1920,18,2887,3629,3630,2890,0.,0.
CQUAD4,1984,18,1533,3701,3560,1535,0.,0.
CQUAD4,1985,18,1637,3702,3558,1639,0.,0.
$ ... 1780 like lines cut
$,Elements,and,Element,Properties,for,region,:,pshell.19
PSHELL,19,1,{t4},1,,1
$,Pset:,"pshell.19",will,be,imported,as:,"pshell.19"
CQUAD4,1878,19,3562,3563,1696,1692,0.,0.
CQUAD4,1879,19,3564,3565,973,969,0.,0.
CQUAD4,1880,19,3566,3567,3035,3031,0.,0.
CQUAD4,1881,19,3568,3569,2884,2880,0.,0.
CQUAD4,1882,19,3570,3571,3169,3165,0.,0.
CQUAD4,1883,19,3572,3573,870,865,0.,0.
CQUAD4,1884,19,3574,3575,2355,2351,0.,0.
CQUAD4,1901,19,2361,3595,3596,2360,0.,0.
CQUAD4,1902,19,2361,2364,3597,3595,0.,0.
CQUAD4,1903,19,2364,2366,3598,3597,0.,0.
CQUAD4,1904,19,822,825,3598,3599,0.,0.
CQUAD4,1905,19,3600,823,822,3599,0.,0.
CQUAD4,1906,19,3122,3601,3602,3123,0.,0.
CQUAD4,1907,19,2835,3603,3604,2838,0.,0.
CQUAD4,1908,19,2988,3605,3606,2989,0.,0.
CQUAD4,1909,19,924,3607,3608,927,0.,0.
CQUAD4,1910,19,1647,3609,3610,1650,0.,0.
CQUAD4,1911,19,1492,3611,3612,1493,0.,0.
CQUAD4,1925,19,3601,3639,825,822,0.,0.
CQUAD4,1926,19,3640,3641,829,827,0.,0.
$ ... 1488 like lines cut
$,Elements,and,Element,Properties,for,region,:,pshell.20
PSHELL,20,1,{t5},1,,1
$,Pset:,"pshell.20",will,be,imported,as:,"pshell.20"
CQUAD4,1525,20,2726,2723,3174,3173,0.,0.
CQUAD4,1526,20,3175,3176,2060,2056,0.,0.
CQUAD4,1527,20,2832,2828,3178,3177,0.,0.
CQUAD4,1528,20,2008,2004,3180,3179,0.,0.
CQUAD4,1529,20,1438,1434,3182,3181,0.,0.
CQUAD4,1530,20,2319,2316,3184,3183,0.,0.
CQUAD4,1570,20,1391,3250,3251,1392,0.,0.
CQUAD4,1571,20,1959,3252,3253,1962,0.,0.
CQUAD4,1572,20,2783,3254,3255,2786,0.,0.
CQUAD4,1573,20,2011,3256,3257,2014,0.,0.
CQUAD4,1574,20,2680,3258,3259,2681,0.,0.
CQUAD4,1575,20,1952,3260,3261,1956,0.,0.
CQUAD4,1576,20,2651,3262,3263,2655,0.,0.
CQUAD4,1577,20,2368,3264,3265,2372,0.,0.
CQUAD4,1580,20,3270,1924,1922,3269,0.,0.
CQUAD4,1581,20,3271,3269,1922,1920,0.,0.
CQUAD4,1582,20,3271,1920,1918,3272,0.,0.
CQUAD4,1583,20,3273,3272,1918,1916,0.,0.
CQUAD4,1584,20,3274,3275,1914,1911,0.,0.
CQUAD4,1585,20,3274,3174,2723,2721,0.,0.
$ ... 1580 like lines cut
$,Elements,and,Element,Properties,for,region,:,pshell.21
PSHELL,21,1,{t6},1,,1
$,Pset:,"pshell.21",will,be,imported,as:,"pshell.21"
CQUAD4,1531,21,1592,1587,3186,3185,0.,0.
CQUAD4,1532,21,2216,2212,3188,3187,0.,0.
CQUAD4,1533,21,2522,2518,3190,3189,0.,0.
CQUAD4,1534,21,2469,2465,3192,3191,0.,0.
CQUAD4,1535,21,1854,1849,3194,3193,0.,0.
CQUAD4,1536,21,2779,2776,3196,3195,0.,0.
CQUAD4,1537,21,1077,1075,3198,3197,0.,0.
CQUAD4,1559,21,3232,3233,1037,1039,0.,0.
CQUAD4,1560,21,3234,1035,1037,3233,0.,0.
CQUAD4,1561,21,3234,3235,1033,1035,0.,0.
CQUAD4,1562,21,83,1030,1033,3235,0.,0.
CQUAD4,1563,21,2732,2731,3236,3237,0.,0.
CQUAD4,1564,21,3239,1807,1808,3238,0.,0.
CQUAD4,1565,21,3241,2423,2422,3240,0.,0.
CQUAD4,1566,21,2473,3242,3243,2476,0.,0.
CQUAD4,1567,21,2167,3244,3245,2170,0.,0.
CQUAD4,1568,21,1543,3246,3247,1546,0.,0.
CQUAD4,1569,21,2272,3248,3249,2273,0.,0.
CQUAD4,1578,21,2731,2736,3266,3236,0.,0.
CQUAD4,1579,21,2738,2740,3267,3268,0.,0.
$ ... 152 like lines cut
CTRIA3,2814,21,84,2376,4271,0.,0.
CQUAD4,2815,21,2377,4272,4271,2376,0.,0.
CQUAD4,2816,21,4272,2377,2379,4273,0.,0.
CQUAD4,2817,21,4273,4274,1038,1036,0.,0.
CQUAD4,2818,21,4274,4275,1040,1038,0.,0.
CQUAD4,2819,21,2383,2385,4276,4275,0.,0.
CQUAD4,2839,21,2780,2775,4307,4308,0.,0.
CQUAD4,2840,21,1850,4309,4310,1853,0.,0.
CQUAD4,2841,21,2466,4311,4312,2470,0.,0.
CQUAD4,2842,21,2517,4313,4314,2521,0.,0.
CQUAD4,2843,21,2211,4315,4316,2215,0.,0.
CQUAD4,2844,21,1588,4317,4318,1591,0.,0.
CQUAD4,2845,21,2315,4319,4320,2320,0.,0.
CQUAD4,2852,21,2741,2739,4334,4335,0.,0.
CQUAD4,2853,21,2737,2735,4336,4337,0.,0.
CQUAD4,2864,21,2209,4350,4315,2211,0.,0.
CQUAD4,2865,21,2515,4351,4313,2517,0.,0.
CQUAD4,2866,21,2464,4352,4311,2466,0.,0.
CQUAD4,2883,21,1814,4370,4371,1816,0.,0.
CQUAD4,2884,21,1810,4372,4373,1812,0.,0.
CQUAD4,2885,21,4374,4375,1044,1046,0.,0.
$ ... 151 like lines cut
CTRIA3,6342,21,83,3235,2375,0.,0.
CQUAD4,6343,21,1030,3237,3236,1033,0.,0.
CQUAD4,6344,21,2732,3239,3238,2731,0.,0.
CQUAD4,6345,21,1808,1807,3241,3240,0.,0.
CQUAD4,6346,21,2422,2423,3243,3242,0.,0.
CQUAD4,6347,21,2476,3245,3244,2473,0.,0.
CQUAD4,6348,21,2170,3247,3246,2167,0.,0.
CQUAD4,6349,21,1546,3249,3248,1543,0.,0.
CQUAD4,6358,21,1033,3236,3266,1035,0.,0.
CQUAD4,6359,21,1037,3268,3267,1039,0.,0.
CQUAD4,6382,21,2736,2731,3238,3296,0.,0.
CQUAD4,6383,21,2740,2738,3298,3297,0.,0.
CQUAD4,6388,21,1035,3266,3268,1037,0.,0.
CQUAD4,6389,21,2738,2736,3296,3298,0.,0.
CQUAD4,6392,21,1039,3267,3305,1041,0.,0.
CQUAD4,6393,21,2742,2740,3297,3306,0.,0.
CQUAD4,6399,21,2774,2776,3198,3310,0.,0.
CQUAD4,6406,21,1548,1543,3248,3317,0.,0.
CQUAD4,6407,21,2172,2167,3246,3318,0.,0.
CQUAD4,6408,21,2478,2473,3244,3319,0.,0.
CQUAD4,6409,21,2426,2422,3242,3320,0.,0.
$ ... 1141 like lines cut
CTRIA3,29402,21,15586,15599,15587,0.,0.
CTRIA3,29405,21,15592,15593,15610,0.,0.
CQUAD4,1564251,21,8226,8225,2393,2395,0.,0.
CQUAD4,1564260,21,10932,10937,2396,2394,0.,0.
CQUAD4,1564325,21,2385,2388,4277,4276,0.,0.
CQUAD4,1564343,21,2384,2382,3232,3231,0.,0.
CQUAD4,1564354,21,3230,2386,2384,3231,0.,0.
CQUAD4,1564379,21,8220,8219,2381,2383,0.,0.
CQUAD4,1564380,21,2382,10897,10900,2384,0.,0.
CQUAD4,1564381,21,8220,2383,2385,8221,0.,0.
CQUAD4,1564382,21,10900,10905,2386,2384,0.,0.
CQUAD4,1564711,21,24386,2386,10905,29499,0.,0.
CQUAD4,1564712,21,12879,8221,26871,18801,0.,0.
CQUAD4,1564713,21,8221,2385,2388,26871,0.,0.
CQUAD4,1564714,21,10905,12879,18801,29499,0.,0.
CQUAD4,1564847,21,27210,27091,33796,19390,0.,0.
CQUAD4,1564848,21,8225,27210,19390,2393,0.,0.
CQUAD4,1564849,21,22890,23033,33800,33801,0.,0.
CQUAD4,1564850,21,22888,22890,33801,33803,0.,0.
CQUAD4,1564851,21,22886,22888,33803,33805,0.,0.
CQUAD4,1564852,21,22886,33805,33807,22885,0.,0.
CQUAD4,1564853,21,22885,33807,33809,22825,0.,0.
$ ... 74 like lines cut
CTRIA3,1564968,21,18991,33796,33819,0.,0.
CQUAD4,1564969,21,4301,33871,33870,15593,0.,0.
CQUAD4,1564970,21,4302,33872,33871,4301,0.,0.
CQUAD4,1564971,21,4303,33873,33872,4302,0.,0.
CQUAD4,1564972,21,4304,33874,33873,4303,0.,0.
CQUAD4,1564973,21,4305,33875,33874,4304,0.,0.
CQUAD4,1564974,21,4305,4306,33876,33875,0.,0.
CQUAD4,1564996,21,29746,33886,22783,29620,0.,0.
CQUAD4,1564997,21,26979,18992,18801,26871,0.,0.
CQUAD4,1564998,21,18992,29620,29499,18801,0.,0.
CQUAD4,1564999,21,29620,18992,19190,29746,0.,0.
CQUAD4,1565000,21,26979,27091,19190,18992,0.,0.
CQUAD4,1565001,21,33796,27091,26979,18991,0.,0.
CQUAD4,1565002,21,19391,19190,27091,27210,0.,0.
CQUAD4,1565003,21,29869,29746,19190,19391,0.,0.
CQUAD4,1565004,21,22780,33886,29746,29869,0.,0.
CQUAD4,1565005,21,12881,19391,27210,8225,0.,0.
CQUAD4,1565006,21,19391,12881,10932,29869,0.,0.
CQUAD4,1565007,21,2394,22780,29869,10932,0.,0.
CQUAD4,1565149,21,22783,24386,29499,29620,0.,0.
CQUAD4,1565150,21,26871,2388,18991,26979,0.,0.
$ ... 72 like lines cut
CTRIA3,1565241,21,22783,33813,33886,0.,0.
CQUAD4,1565242,21,29620,33887,33813,22783,0.,0.
CQUAD4,1565243,21,33887,29620,18992,33927,0.,0.
CQUAD4,1565244,21,33927,18992,26979,33902,0.,0.
CQUAD4,1565245,21,26979,18991,33819,33902,0.,0.
CQUAD4,1568326,21,83,2375,10885,33990,0.,0.
CQUAD4,1568337,21,84,33993,8217,2376,0.,0.
CQUAD4,1568338,21,33992,12871,8217,33993,0.,0.
CQUAD4,1568339,21,10885,12871,33992,33990,0.,0.
CQUAD4,1568344,21,33990,33989,9239,83,0.,0.
CQUAD4,1568345,21,33989,33990,33992,33983,0.,0.
CQUAD4,1568346,21,33978,33983,33992,33993,0.,0.
CQUAD4,1568347,21,33978,33993,84,104,0.,0.
$,Elements,and,Element,Properties,for,region,:,pshell.22
PSHELL,22,1,{t7},1,,1
$,Pset:,"pshell.22",will,be,imported,as:,"pshell.22"
CQUAD4,12367,22,6752,6753,6754,6755,0.,0.
CQUAD4,12371,22,82,6767,23,24,0.,0.
CQUAD4,12427,22,249,6755,6973,250,0.,0.
CQUAD4,13774,22,8701,8339,8341,8700,0.,0.
CQUAD4,13775,22,6963,8702,15,6964,0.,0.
CQUAD4,13776,22,7032,6963,6964,7031,0.,0.
CQUAD4,13777,22,8705,8664,8665,8704,0.,0.
CQUAD4,13778,22,8707,7583,7584,8706,0.,0.
CQUAD4,13779,22,8709,8643,993,8708,0.,0.
CQUAD4,13780,22,8711,7350,7351,8710,0.,0.
CQUAD4,13781,22,6955,7032,7031,6956,0.,0.
CQUAD4,13782,22,7094,6955,6956,10,0.,0.
CQUAD4,13872,22,8892,8893,9,8891,0.,0.
CQUAD4,13873,22,8894,7030,8893,8892,0.,0.
CQUAD4,13874,22,8895,8896,7030,8894,0.,0.
CQUAD4,13875,22,8343,8341,8896,8895,0.,0.
CQUAD4,13876,22,8373,18,8700,8897,0.,0.
CQUAD4,13877,22,8898,8669,8668,8899,0.,0.
CQUAD4,13878,22,7588,7587,8901,8900,0.,0.
CQUAD4,13879,22,8647,82,8903,8902,0.,0.
$ ... 188 like lines cut
$,Elements,and,Element,Properties,for,region,:,pshell.23
PSHELL,23,1,{t8},1,,1
$,Pset:,"pshell.23",will,be,imported,as:,"pshell.23"
CQUAD4,13783,23,6947,7094,10,6948,0.,0.
CQUAD4,13784,23,7156,6947,6948,7155,0.,0.
CQUAD4,13785,23,6939,7156,7155,6940,0.,0.
CQUAD4,13786,23,6935,6939,6940,6936,0.,0.
CQUAD4,13787,23,7302,6935,6936,7301,0.,0.
CQUAD4,13788,23,6927,7302,7301,6928,0.,0.
CQUAD4,13789,23,6931,6927,6928,6932,0.,0.
CQUAD4,13790,23,8713,7549,7550,8712,0.,0.
CQUAD4,13791,23,8715,8148,8149,8714,0.,0.
CQUAD4,13792,23,8717,7706,506,8716,0.,0.
CQUAD4,13793,23,8718,8719,8720,507,0.,0.
CQUAD4,13794,23,8722,8723,7424,7425,0.,0.
CQUAD4,13859,23,8871,8872,7425,8724,0.,0.
CQUAD4,13860,23,8873,8874,507,8722,0.,0.
CQUAD4,13861,23,8875,7710,506,8718,0.,0.
CQUAD4,13862,23,8876,8877,8149,8716,0.,0.
CQUAD4,13863,23,8878,8879,7550,8714,0.,0.
CQUAD4,13864,23,8879,8880,8712,7550,0.,0.
CQUAD4,13865,23,8712,8880,8881,8882,0.,0.
CQUAD4,13866,23,8881,8883,7300,8882,0.,0.
$ ... 196 like lines cut
$,Elements,and,Element,Properties,for,region,:,pshell.24
PSHELL,24,1,{t9},1,,1
$,Pset:,"pshell.24",will,be,imported,as:,"pshell.24"
CQUAD4,12368,24,39,6757,6756,6759,0.,0.
CQUAD4,12369,24,6760,7,13,14,0.,0.
CQUAD4,12424,24,6966,2,6968,6967,0.,0.
CQUAD4,12425,24,6970,3,6972,6969,0.,0.
CQUAD4,12426,24,6759,248,247,39,0.,0.
CQUAD4,13795,24,8724,8725,7597,7598,0.,0.
CQUAD4,13796,24,7523,8726,6760,7,0.,0.
CQUAD4,13819,24,8781,8782,8783,8784,0.,0.
CQUAD4,13820,24,8785,8786,8787,8788,0.,0.
CQUAD4,13821,24,8789,8790,8065,8066,0.,0.
CQUAD4,13822,24,8791,8792,8793,8794,0.,0.
CQUAD4,13823,24,8795,8796,8797,8798,0.,0.
CQUAD4,13824,24,8799,8800,8801,8802,0.,0.
CQUAD4,13825,24,8803,8804,7648,7649,0.,0.
CQUAD4,13826,24,8805,8806,8557,3,0.,0.
CQUAD4,13827,24,3,8557,8807,6972,0.,0.
CQUAD4,13841,24,8825,8828,8827,8826,0.,0.
CQUAD4,13842,24,8829,7489,7491,8830,0.,0.
CQUAD4,13843,24,8831,456,8095,8832,0.,0.
CQUAD4,13844,24,8833,8583,8585,8834,0.,0.
$ ... 316 like lines cut
$,Elements,and,Element,Properties,for,region,:,pshell.25
PSHELL,25,1,{t10},1,,1
$,Pset:,"pshell.25",will,be,imported,as:,"pshell.25"
CQUAD4,13810,25,8761,8199,8200,8762,0.,0.
CQUAD4,13811,25,8763,8764,8765,8766,0.,0.
CQUAD4,13812,25,8767,8768,8694,8695,0.,0.
CQUAD4,13813,25,8769,8770,8528,8529,0.,0.
CQUAD4,13814,25,8771,8772,8610,8611,0.,0.
CQUAD4,13815,25,8773,8774,7392,7393,0.,0.
CQUAD4,13816,25,8775,8776,7829,7830,0.,0.
CQUAD4,13817,25,8777,8778,7735,7736,0.,0.
CQUAD4,13818,25,8779,8780,7794,7795,0.,0.
CQUAD4,13848,25,8842,7798,7799,8843,0.,0.
CQUAD4,13849,25,8844,7739,7740,8845,0.,0.
CQUAD4,13850,25,8846,7827,8848,8847,0.,0.
CQUAD4,13851,25,8849,7390,8851,8850,0.,0.
CQUAD4,13852,25,8852,8855,8854,8853,0.,0.
CQUAD4,13853,25,8856,8526,8858,8857,0.,0.
CQUAD4,13854,25,8698,8699,8860,8859,0.,0.
CQUAD4,13855,25,8861,7332,7334,8862,0.,0.
CQUAD4,13856,25,8863,8203,8204,8864,0.,0.
CQUAD4,13857,25,8866,8204,8203,8865,0.,0.
CQUAD4,13911,25,8842,4692,1644,7798,0.,0.
$ ... 324 like lines cut
$,Elements,and,Element,Properties,for,region,:,pshell.26
PSHELL,26,1,{t11},1,,1
$,Pset:,"pshell.26",will,be,imported,as:,"pshell.26"
CQUAD4,12370,26,6762,6765,6764,6763,0.,0.
CQUAD4,13797,26,8727,8034,8035,8728,0.,0.
CQUAD4,13798,26,8730,8497,8498,8729,0.,0.
CQUAD4,13799,26,8732,8006,8007,8731,0.,0.
CQUAD4,13800,26,8734,8735,8736,8733,0.,0.
CQUAD4,13801,26,8738,8739,8740,8737,0.,0.
CQUAD4,13802,26,8742,7766,7767,8741,0.,0.
CQUAD4,13803,26,8744,8120,8121,8743,0.,0.
CQUAD4,13834,26,8816,7769,7767,8743,0.,0.
CQUAD4,13835,26,8817,8818,8740,8741,0.,0.
CQUAD4,13836,26,8819,8820,8736,8737,0.,0.
CQUAD4,13837,26,8821,8009,8007,8733,0.,0.
CQUAD4,13838,26,8822,8500,8498,8731,0.,0.
CQUAD4,13839,26,8823,8037,8035,8729,0.,0.
CQUAD4,13840,26,8728,8035,8037,8824,0.,0.
CQUAD4,13926,26,8743,7767,1591,4318,0.,0.
CQUAD4,13927,26,8741,8740,2320,4320,0.,0.
CQUAD4,13928,26,8737,8736,1439,4322,0.,0.
CQUAD4,13929,26,8733,8007,2007,4324,0.,0.
CQUAD4,13930,26,4326,8731,8498,2831,0.,0.
$ ... 252 like lines cut
$,Elements,and,Element,Properties,for,region,:,pshell.27
PSHELL,27,1,{t12},1,,1
$,Pset:,"pshell.27",will,be,imported,as:,"pshell.27"
CQUAD4,13804,27,8746,8296,8297,8745,0.,0.
CQUAD4,13805,27,8748,8749,8750,8747,0.,0.
CQUAD4,13806,27,8752,7920,7921,8751,0.,0.
CQUAD4,13807,27,8754,8755,8756,8753,0.,0.
CQUAD4,13808,27,8757,7460,86,8758,0.,0.
CQUAD4,13809,27,8759,8239,8240,8760,0.,0.
CQUAD4,13828,27,8760,8240,8241,8808,0.,0.
CQUAD4,13829,27,8809,8810,8756,8758,0.,0.
CQUAD4,13830,27,8811,7923,7921,8753,0.,0.
CQUAD4,13831,27,8812,8813,8750,8751,0.,0.
CQUAD4,13832,27,8814,8299,8297,8747,0.,0.
CQUAD4,13833,27,8815,8123,8121,8745,0.,0.
CQUAD4,13902,27,1078,86,8907,5414,0.,0.
CQUAD4,13921,27,2780,4308,8758,8756,0.,0.
CQUAD4,13922,27,8753,7921,1853,4310,0.,0.
CQUAD4,13923,27,4312,8751,8750,2470,0.,0.
CQUAD4,13924,27,8747,8297,2521,4314,0.,0.
CQUAD4,13925,27,8745,8121,2215,4316,0.,0.
CQUAD4,13976,27,9010,9009,223,6875,0.,0.
CQUAD4,13977,27,9012,9011,221,6835,0.,0.
$ ... 215 like lines cut
$ Elements and Element Properties for region : conm2
CONM2,1553315,33533,0,{m1},      0.,      0.,      0.
,      0.,      0.,      0.,      0.,      0.,      0.
CONM2,1553316,33534,0,{m2},      0.,      0.,      0.
,      0.,      0.,      0.,      0.,      0.,      0.
CONM2,1553317,33535,0,{m3},      0.,      0.,      0.
,      0.,      0.,      0.,      0.,      0.,      0.
CONM2,1553318,33536,0,{m4},      0.,      0.,      0.
,      0.,      0.,      0.,      0.,      0.,      0.
CONM2,1553319,33537,0,{m5},      0.,      0.,      0.
,      0.,      0.,      0.,      0.,      0.,      0.
CONM2,1553320,33538,0,{m6},      0.,      0.,      0.
,      0.,      0.,      0.,      0.,      0.,      0.
CONM2,1553321,33539,0,{m7},      0.,      0.,      0.
,      0.,      0.,      0.,      0.,      0.,      0.
CONM2,1553322,33540,0,{m8},      0.,      0.,      0.
,      0.,      0.,      0.,      0.,      0.,      0.
CONM2,1553323,33541,0,{m9},      0.,      0.,      0.
,      0.,      0.,      0.,      0.,      0.,      0.
CONM2,1553324,33550,0,{m10},      0.,      0.,      0.
,      0.,      0.,      0.,      0.,      0.,      0.
CONM2,1553325,33551,0,{m11},      0.,      0.,      0.
,      0.,      0.,      0.,      0.,      0.,      0.
CONM2,1553326,33544,0,{m12},      0.,      0.,      0.
,      0.,      0.,      0.,      0.,      0.,      0.
CONM2,1553327,33546,0,{m13},      0.,      0.,      0.
,      0.,      0.,      0.,      0.,      0.,      0.
CONM2,1553328,33547,0,{m14},      0.,      0.,      0.
,      0.,      0.,      0.,      0.,      0.,      0.
CONM2,1553329,33548,0,{m15},      0.,      0.,      0.
,      0.,      0.,      0.,      0.,      0.,      0.
CONM2,1553330,33549,0,{m16},      0.,      0.,      0.
,      0.,      0.,      0.,      0.,      0.,      0.
CONM2,1553331,33542,0,{m17},      0.,      0.,      0.
,      0.,      0.,      0.,      0.,      0.,      0.
CONM2,1553332,33543,0,{m18},      0.,      0.,      0.
,      0.,      0.,      0.,      0.,      0.,      0.
CONM2,1553333,33545,0,{m19},      0.,      0.,      0.
,      0.,      0.,      0.,      0.,      0.,      0.
CONM2,1553334,33532,0,{m20},      0.,      0.,      0.
,      0.,      0.,      0.,      0.,      0.,      0.
$,Referenced,Material,Records
$,Material,Record,:,mat1.1
$,Description,of,Material,:
MAT1,1,6.89E+10,2.62E+10,.31,2795.67
$,Material,Record,:,mat1.2
$,Description,of,Material,:
MAT1,2,6.89E+10,2.62E+10,.31,2795.67
$ Multipoint Constraints of the Entire Model
MPCADD,1493985,1493965,1493966,1493967,1493968,1493969,1493970,1493971,
,1493972,1493973,1493974,1493975,1493976,1493977,1493978,1493979,
,1493980,1493981,1493982,1493983,1493984
MPC,1493965,33543,1,-10.,6973,1,1.,,+2
+2,,6752,1,1.,9034,1,1.,,+3
+3,,9030,1,1.,50,1,1.,,+4
+4,,49,1,1.,182,1,1.,,+5
+5,,180,1,1.,99,1,1.,,+6
+6,,98,1,1.,,,,,
MPC,1493965,33543,2,-10.,6973,2,1.,,+8
+8,,6752,2,1.,9034,2,1.,,+9
+9,,9030,2,1.,50,2,1.,,+10
+10,,49,2,1.,182,2,1.,,+11
+11,,180,2,1.,99,2,1.,,+12
+12,,98,2,1.,,,,,
MPC,1493965,33543,3,-10.,6973,3,1.,,+14
+14,,6752,3,1.,9034,3,1.,,+15
+15,,9030,3,1.,50,3,1.,,+16
+16,,49,3,1.,182,3,1.,,+17
+17,,180,3,1.,99,3,1.,,+18
+18,,98,3,1.,,,,,
MPC,1493965,33543,4,-10.,6973,4,1.,,+20
+20,,6752,4,1.,9034,4,1.,,+21
+21,,9030,4,1.,50,4,1.,,+22
+22,,49,4,1.,182,4,1.,,+23
+23,,180,4,1.,99,4,1.,,+24
+24,,98,4,1.,,,,,
MPC,1493965,33543,5,-10.,6973,5,1.,,+26
+26,,6752,5,1.,9034,5,1.,,+27
+27,,9030,5,1.,50,5,1.,,+28
+28,,49,5,1.,182,5,1.,,+29
+29,,180,5,1.,99,5,1.,,+30
+30,,98,5,1.,,,,,
MPC,1493965,33543,6,-10.,6973,6,1.,,+32
+32,,6752,6,1.,9034,6,1.,,+33
+33,,9030,6,1.,50,6,1.,,+34
+34,,49,6,1.,182,6,1.,,+35
+35,,180,6,1.,99,6,1.,,+36
+36,,98,6,1.,,,,,
MPC,1493966,33542,1,-10.,6813,1,1.,,+38
+38,,7000,1,1.,6960,1,1.,,+39
+39,,7062,1,1.,6952,1,1.,,+40
+40,,185,1,1.,187,1,1.,,+41
+41,,190,1,1.,192,1,1.,,+42
+42,,194,1,1.,,,,,
MPC,1493966,33542,2,-10.,6813,2,1.,,+44
+44,,7000,2,1.,6960,2,1.,,+45
+45,,7062,2,1.,6952,2,1.,,+46
+46,,185,2,1.,187,2,1.,,+47
+47,,190,2,1.,192,2,1.,,+48
+48,,194,2,1.,,,,,
MPC,1493966,33542,3,-10.,6813,3,1.,,+50
+50,,7000,3,1.,6960,3,1.,,+51
+51,,7062,3,1.,6952,3,1.,,+52
+52,,185,3,1.,187,3,1.,,+53
+53,,190,3,1.,192,3,1.,,+54
+54,,194,3,1.,,,,,
MPC,1493966,33542,4,-10.,6813,4,1.,,+56
+56,,7000,4,1.,6960,4,1.,,+57
+57,,7062,4,1.,6952,4,1.,,+58
+58,,185,4,1.,187,4,1.,,+59
+59,,190,4,1.,192,4,1.,,+60
+60,,194,4,1.,,,,,
MPC,1493966,33542,5,-10.,6813,5,1.,,+62
+62,,7000,5,1.,6960,5,1.,,+63
+63,,7062,5,1.,6952,5,1.,,+64
+64,,185,5,1.,187,5,1.,,+65
+65,,190,5,1.,192,5,1.,,+66
+66,,194,5,1.,,,,,
MPC,1493966,33542,6,-10.,6813,6,1.,,+68
+68,,7000,6,1.,6960,6,1.,,+69
+69,,7062,6,1.,6952,6,1.,,+70
+70,,185,6,1.,187,6,1.,,+71
+71,,190,6,1.,192,6,1.,,+72
+72,,194,6,1.,,,,,
MPC,1493967,33545,1,-12.,7124,1,1.,,+74
+74,,6943,1,1.,7185,1,1.,,+75
+75,,7215,1,1.,6923,1,1.,,+76
+76,,663,1,1.,206,1,1.,,+77
+77,,204,1,1.,202,1,1.,,+78
+78,,200,1,1.,198,1,1.,,+79
+79,,196,1,1.,,,,,
MPC,1493967,33545,2,-12.,7124,2,1.,,+81
+81,,6943,2,1.,7185,2,1.,,+82
+82,,7215,2,1.,6923,2,1.,,+83
+83,,663,2,1.,206,2,1.,,+84
+84,,204,2,1.,202,2,1.,,+85
+85,,200,2,1.,198,2,1.,,+86
+86,,196,2,1.,,,,,
MPC,1493967,33545,3,-12.,7124,3,1.,,+88
+88,,6943,3,1.,7185,3,1.,,+89
+89,,7215,3,1.,6923,3,1.,,+90
+90,,663,3,1.,206,3,1.,,+91
+91,,204,3,1.,202,3,1.,,+92
+92,,200,3,1.,198,3,1.,,+93
+93,,196,3,1.,,,,,
MPC,1493967,33545,4,-12.,7124,4,1.,,+95
+95,,6943,4,1.,7185,4,1.,,+96
+96,,7215,4,1.,6923,4,1.,,+97
+97,,663,4,1.,206,4,1.,,+98
+98,,204,4,1.,202,4,1.,,+99
+99,,200,4,1.,198,4,1.,,+100
+100,,196,4,1.,,,,,
MPC,1493967,33545,5,-12.,7124,5,1.,,+102
+102,,6943,5,1.,7185,5,1.,,+103
+103,,7215,5,1.,6923,5,1.,,+104
+104,,663,5,1.,206,5,1.,,+105
+105,,204,5,1.,202,5,1.,,+106
+106,,200,5,1.,198,5,1.,,+107
+107,,196,5,1.,,,,,
MPC,1493967,33545,6,-12.,7124,6,1.,,+109
+109,,6943,6,1.,7185,6,1.,,+110
+110,,7215,6,1.,6923,6,1.,,+111
+111,,663,6,1.,206,6,1.,,+112
+112,,204,6,1.,202,6,1.,,+113
+113,,200,6,1.,198,6,1.,,+114
+114,,196,6,1.,,,,,
MPC,1493968,33544,1,-12.,7243,1,1.,,+116
+116,,659,1,1.,44,1,1.,,+117
+117,,40,1,1.,38,1,1.,,+118
+118,,7405,1,1.,139,1,1.,,+119
+119,,35,1,1.,39,1,1.,,+120
+120,,43,1,1.,210,1,1.,,+121
+121,,208,1,1.,,,,,
MPC,1493968,33544,2,-12.,7243,2,1.,,+123
+123,,659,2,1.,44,2,1.,,+124
+124,,40,2,1.,38,2,1.,,+125
+125,,7405,2,1.,139,2,1.,,+126
+126,,35,2,1.,39,2,1.,,+127
+127,,43,2,1.,210,2,1.,,+128
+128,,208,2,1.,,,,,
MPC,1493968,33544,3,-12.,7243,3,1.,,+130
+130,,659,3,1.,44,3,1.,,+131
+131,,40,3,1.,38,3,1.,,+132
+132,,7405,3,1.,139,3,1.,,+133
+133,,35,3,1.,39,3,1.,,+134
+134,,43,3,1.,210,3,1.,,+135
+135,,208,3,1.,,,,,
MPC,1493968,33544,4,-12.,7243,4,1.,,+137
+137,,659,4,1.,44,4,1.,,+138
+138,,40,4,1.,38,4,1.,,+139
+139,,7405,4,1.,139,4,1.,,+140
+140,,35,4,1.,39,4,1.,,+141
+141,,43,4,1.,210,4,1.,,+142
+142,,208,4,1.,,,,,
MPC,1493968,33544,5,-12.,7243,5,1.,,+144
+144,,659,5,1.,44,5,1.,,+145
+145,,40,5,1.,38,5,1.,,+146
+146,,7405,5,1.,139,5,1.,,+147
+147,,35,5,1.,39,5,1.,,+148
+148,,43,5,1.,210,5,1.,,+149
+149,,208,5,1.,,,,,
MPC,1493968,33544,6,-12.,7243,6,1.,,+151
+151,,659,6,1.,44,6,1.,,+152
+152,,40,6,1.,38,6,1.,,+153
+153,,7405,6,1.,139,6,1.,,+154
+154,,35,6,1.,39,6,1.,,+155
+155,,43,6,1.,210,6,1.,,+156
+156,,208,6,1.,,,,,
MPC,1493969,33547,1,-10.,8980,1,1.,,+158
+158,,7515,1,1.,8974,1,1.,,+159
+159,,6889,1,1.,8968,1,1.,,+160
+160,,6906,1,1.,148,1,1.,,+161
+161,,146,1,1.,144,1,1.,,+162
+162,,142,1,1.,,,,,
MPC,1493969,33547,2,-10.,8980,2,1.,,+164
+164,,7515,2,1.,8974,2,1.,,+165
+165,,6889,2,1.,8968,2,1.,,+166
+166,,6906,2,1.,148,2,1.,,+167
+167,,146,2,1.,144,2,1.,,+168
+168,,142,2,1.,,,,,
MPC,1493969,33547,3,-10.,8980,3,1.,,+170
+170,,7515,3,1.,8974,3,1.,,+171
+171,,6889,3,1.,8968,3,1.,,+172
+172,,6906,3,1.,148,3,1.,,+173
+173,,146,3,1.,144,3,1.,,+174
+174,,142,3,1.,,,,,
MPC,1493969,33547,4,-10.,8980,4,1.,,+176
+176,,7515,4,1.,8974,4,1.,,+177
+177,,6889,4,1.,8968,4,1.,,+178
+178,,6906,4,1.,148,4,1.,,+179
+179,,146,4,1.,144,4,1.,,+180
+180,,142,4,1.,,,,,
MPC,1493969,33547,5,-10.,8980,5,1.,,+182
+182,,7515,5,1.,8974,5,1.,,+183
+183,,6889,5,1.,8968,5,1.,,+184
+184,,6906,5,1.,148,5,1.,,+185
+185,,146,5,1.,144,5,1.,,+186
+186,,142,5,1.,,,,,
MPC,1493969,33547,6,-10.,8980,6,1.,,+188
+188,,7515,6,1.,8974,6,1.,,+189
+189,,6889,6,1.,8968,6,1.,,+190
+190,,6906,6,1.,148,6,1.,,+191
+191,,146,6,1.,144,6,1.,,+192
+192,,142,6,1.,,,,,
MPC,1493970,33546,1,-12.,8964,1,1.,,+194
+194,,8960,1,1.,8956,1,1.,,+195
+195,,8952,1,1.,8948,1,1.,,+196
+196,,6871,1,1.,162,1,1.,,+197
+197,,160,1,1.,158,1,1.,,+198
+198,,6844,1,1.,6783,1,1.,,+199
+199,,152,1,1.,,,,,
MPC,1493970,33546,2,-12.,8964,2,1.,,+201
+201,,8960,2,1.,8956,2,1.,,+202
+202,,8952,2,1.,8948,2,1.,,+203
+203,,6871,2,1.,162,2,1.,,+204
+204,,160,2,1.,158,2,1.,,+205
+205,,6844,2,1.,6783,2,1.,,+206
+206,,152,2,1.,,,,,
MPC,1493970,33546,3,-12.,8964,3,1.,,+208
+208,,8960,3,1.,8956,3,1.,,+209
+209,,8952,3,1.,8948,3,1.,,+210
+210,,6871,3,1.,162,3,1.,,+211
+211,,160,3,1.,158,3,1.,,+212
+212,,6844,3,1.,6783,3,1.,,+213
+213,,152,3,1.,,,,,
MPC,1493970,33546,4,-12.,8964,4,1.,,+215
+215,,8960,4,1.,8956,4,1.,,+216
+216,,8952,4,1.,8948,4,1.,,+217
+217,,6871,4,1.,162,4,1.,,+218
+218,,160,4,1.,158,4,1.,,+219
+219,,6844,4,1.,6783,4,1.,,+220
+220,,152,4,1.,,,,,
MPC,1493970,33546,5,-12.,8964,5,1.,,+222
+222,,8960,5,1.,8956,5,1.,,+223
+223,,8952,5,1.,8948,5,1.,,+224
+224,,6871,5,1.,162,5,1.,,+225
+225,,160,5,1.,158,5,1.,,+226
+226,,6844,5,1.,6783,5,1.,,+227
+227,,152,5,1.,,,,,
MPC,1493970,33546,6,-12.,8964,6,1.,,+229
+229,,8960,6,1.,8956,6,1.,,+230
+230,,8952,6,1.,8948,6,1.,,+231
+231,,6871,6,1.,162,6,1.,,+232
+232,,160,6,1.,158,6,1.,,+233
+233,,6844,6,1.,6783,6,1.,,+234
+234,,152,6,1.,,,,,
MPC,1493971,33549,1,-12.,6879,1,1.,,+236
+236,,8940,1,1.,8936,1,1.,,+237
+237,,6778,1,1.,8930,1,1.,,+238
+238,,6770,1,1.,173,1,1.,,+239
+239,,172,1,1.,170,1,1.,,+240
+240,,6914,1,1.,6868,1,1.,,+241
+241,,164,1,1.,,,,,
MPC,1493971,33549,2,-12.,6879,2,1.,,+243
+243,,8940,2,1.,8936,2,1.,,+244
+244,,6778,2,1.,8930,2,1.,,+245
+245,,6770,2,1.,173,2,1.,,+246
+246,,172,2,1.,170,2,1.,,+247
+247,,6914,2,1.,6868,2,1.,,+248
+248,,164,2,1.,,,,,
MPC,1493971,33549,3,-12.,6879,3,1.,,+250
+250,,8940,3,1.,8936,3,1.,,+251
+251,,6778,3,1.,8930,3,1.,,+252
+252,,6770,3,1.,173,3,1.,,+253
+253,,172,3,1.,170,3,1.,,+254
+254,,6914,3,1.,6868,3,1.,,+255
+255,,164,3,1.,,,,,
MPC,1493971,33549,4,-12.,6879,4,1.,,+257
+257,,8940,4,1.,8936,4,1.,,+258
+258,,6778,4,1.,8930,4,1.,,+259
+259,,6770,4,1.,173,4,1.,,+260
+260,,172,4,1.,170,4,1.,,+261
+261,,6914,4,1.,6868,4,1.,,+262
+262,,164,4,1.,,,,,
MPC,1493971,33549,5,-12.,6879,5,1.,,+264
+264,,8940,5,1.,8936,5,1.,,+265
+265,,6778,5,1.,8930,5,1.,,+266
+266,,6770,5,1.,173,5,1.,,+267
+267,,172,5,1.,170,5,1.,,+268
+268,,6914,5,1.,6868,5,1.,,+269
+269,,164,5,1.,,,,,
MPC,1493971,33549,6,-12.,6879,6,1.,,+271
+271,,8940,6,1.,8936,6,1.,,+272
+272,,6778,6,1.,8930,6,1.,,+273
+273,,6770,6,1.,173,6,1.,,+274
+274,,172,6,1.,170,6,1.,,+275
+275,,6914,6,1.,6868,6,1.,,+276
+276,,164,6,1.,,,,,
MPC,1493972,33548,1,-12.,6762,1,1.,,+278
+278,,72,1,1.,8391,1,1.,,+279
+279,,9260,1,1.,6802,1,1.,,+280
+280,,9257,1,1.,6848,1,1.,,+281
+281,,8994,1,1.,7979,1,1.,,+282
+282,,240,1,1.,242,1,1.,,+283
+283,,176,1,1.,,,,,
MPC,1493972,33548,2,-12.,6762,2,1.,,+285
+285,,72,2,1.,8391,2,1.,,+286
+286,,9260,2,1.,6802,2,1.,,+287
+287,,9257,2,1.,6848,2,1.,,+288
+288,,8994,2,1.,7979,2,1.,,+289
+289,,240,2,1.,242,2,1.,,+290
+290,,176,2,1.,,,,,
MPC,1493972,33548,3,-12.,6762,3,1.,,+292
+292,,72,3,1.,8391,3,1.,,+293
+293,,9260,3,1.,6802,3,1.,,+294
+294,,9257,3,1.,6848,3,1.,,+295
+295,,8994,3,1.,7979,3,1.,,+296
+296,,240,3,1.,242,3,1.,,+297
+297,,176,3,1.,,,,,
MPC,1493972,33548,4,-12.,6762,4,1.,,+299
+299,,72,4,1.,8391,4,1.,,+300
+300,,9260,4,1.,6802,4,1.,,+301
+301,,9257,4,1.,6848,4,1.,,+302
+302,,8994,4,1.,7979,4,1.,,+303
+303,,240,4,1.,242,4,1.,,+304
+304,,176,4,1.,,,,,
MPC,1493972,33548,5,-12.,6762,5,1.,,+306
+306,,72,5,1.,8391,5,1.,,+307
+307,,9260,5,1.,6802,5,1.,,+308
+308,,9257,5,1.,6848,5,1.,,+309
+309,,8994,5,1.,7979,5,1.,,+310
+310,,240,5,1.,242,5,1.,,+311
+311,,176,5,1.,,,,,
MPC,1493972,33548,6,-12.,6762,6,1.,,+313
+313,,72,6,1.,8391,6,1.,,+314
+314,,9260,6,1.,6802,6,1.,,+315
+315,,9257,6,1.,6848,6,1.,,+316
+316,,8994,6,1.,7979,6,1.,,+317
+317,,240,6,1.,242,6,1.,,+318
+318,,176,6,1.,,,,,
MPC,1493973,33551,1,-10.,9255,1,1.,,+320
+320,,9253,1,1.,6885,1,1.,,+321
+321,,6827,1,1.,9249,1,1.,,+322
+322,,223,1,1.,225,1,1.,,+323
+323,,228,1,1.,230,1,1.,,+324
+324,,6795,1,1.,,,,,
MPC,1493973,33551,2,-10.,9255,2,1.,,+326
+326,,9253,2,1.,6885,2,1.,,+327
+327,,6827,2,1.,9249,2,1.,,+328
+328,,223,2,1.,225,2,1.,,+329
+329,,228,2,1.,230,2,1.,,+330
+330,,6795,2,1.,,,,,
MPC,1493973,33551,3,-10.,9255,3,1.,,+332
+332,,9253,3,1.,6885,3,1.,,+333
+333,,6827,3,1.,9249,3,1.,,+334
+334,,223,3,1.,225,3,1.,,+335
+335,,228,3,1.,230,3,1.,,+336
+336,,6795,3,1.,,,,,
MPC,1493973,33551,4,-10.,9255,4,1.,,+338
+338,,9253,4,1.,6885,4,1.,,+339
+339,,6827,4,1.,9249,4,1.,,+340
+340,,223,4,1.,225,4,1.,,+341
+341,,228,4,1.,230,4,1.,,+342
+342,,6795,4,1.,,,,,
MPC,1493973,33551,5,-10.,9255,5,1.,,+344
+344,,9253,5,1.,6885,5,1.,,+345
+345,,6827,5,1.,9249,5,1.,,+346
+346,,223,5,1.,225,5,1.,,+347
+347,,228,5,1.,230,5,1.,,+348
+348,,6795,5,1.,,,,,
MPC,1493973,33551,6,-10.,9255,6,1.,,+350
+350,,9253,6,1.,6885,6,1.,,+351
+351,,6827,6,1.,9249,6,1.,,+352
+352,,223,6,1.,225,6,1.,,+353
+353,,228,6,1.,230,6,1.,,+354
+354,,6795,6,1.,,,,,
MPC,1493974,33550,1,-14.,9247,1,1.,,+356
+356,,608,1,1.,6820,1,1.,,+357
+357,,612,1,1.,6798,1,1.,,+358
+358,,7432,1,1.,8216,1,1.,,+359
+359,,104,1,1.,105,1,1.,,+360
+360,,214,1,1.,216,1,1.,,+361
+361,,218,1,1.,219,1,1.,,+362
+362,,221,1,1.,,,,,
MPC,1493974,33550,2,-14.,9247,2,1.,,+364
+364,,608,2,1.,6820,2,1.,,+365
+365,,612,2,1.,6798,2,1.,,+366
+366,,7432,2,1.,8216,2,1.,,+367
+367,,104,2,1.,105,2,1.,,+368
+368,,214,2,1.,216,2,1.,,+369
+369,,218,2,1.,219,2,1.,,+370
+370,,221,2,1.,,,,,
MPC,1493974,33550,3,-14.,9247,3,1.,,+372
+372,,608,3,1.,6820,3,1.,,+373
+373,,612,3,1.,6798,3,1.,,+374
+374,,7432,3,1.,8216,3,1.,,+375
+375,,104,3,1.,105,3,1.,,+376
+376,,214,3,1.,216,3,1.,,+377
+377,,218,3,1.,219,3,1.,,+378
+378,,221,3,1.,,,,,
MPC,1493974,33550,4,-14.,9247,4,1.,,+380
+380,,608,4,1.,6820,4,1.,,+381
+381,,612,4,1.,6798,4,1.,,+382
+382,,7432,4,1.,8216,4,1.,,+383
+383,,104,4,1.,105,4,1.,,+384
+384,,214,4,1.,216,4,1.,,+385
+385,,218,4,1.,219,4,1.,,+386
+386,,221,4,1.,,,,,
MPC,1493974,33550,5,-14.,9247,5,1.,,+388
+388,,608,5,1.,6820,5,1.,,+389
+389,,612,5,1.,6798,5,1.,,+390
+390,,7432,5,1.,8216,5,1.,,+391
+391,,104,5,1.,105,5,1.,,+392
+392,,214,5,1.,216,5,1.,,+393
+393,,218,5,1.,219,5,1.,,+394
+394,,221,5,1.,,,,,
MPC,1493974,33550,6,-14.,9247,6,1.,,+396
+396,,608,6,1.,6820,6,1.,,+397
+397,,612,6,1.,6798,6,1.,,+398
+398,,7432,6,1.,8216,6,1.,,+399
+399,,104,6,1.,105,6,1.,,+400
+400,,214,6,1.,216,6,1.,,+401
+401,,218,6,1.,219,6,1.,,+402
+402,,221,6,1.,,,,,
MPC,1493975,33532,1,-10.,81,1,1.,,+404
+404,,82,1,1.,7587,1,1.,,+405
+405,,8668,1,1.,18,1,1.,,+406
+406,,17,1,1.,8665,1,1.,,+407
+407,,7584,1,1.,993,1,1.,,+408
+408,,7351,1,1.,,,,,
MPC,1493975,33532,2,-10.,81,2,1.,,+410
+410,,82,2,1.,7587,2,1.,,+411
+411,,8668,2,1.,18,2,1.,,+412
+412,,17,2,1.,8665,2,1.,,+413
+413,,7584,2,1.,993,2,1.,,+414
+414,,7351,2,1.,,,,,
MPC,1493975,33532,3,-10.,81,3,1.,,+416
+416,,82,3,1.,7587,3,1.,,+417
+417,,8668,3,1.,18,3,1.,,+418
+418,,17,3,1.,8665,3,1.,,+419
+419,,7584,3,1.,993,3,1.,,+420
+420,,7351,3,1.,,,,,
MPC,1493975,33532,4,-10.,81,4,1.,,+422
+422,,82,4,1.,7587,4,1.,,+423
+423,,8668,4,1.,18,4,1.,,+424
+424,,17,4,1.,8665,4,1.,,+425
+425,,7584,4,1.,993,4,1.,,+426
+426,,7351,4,1.,,,,,
MPC,1493975,33532,5,-10.,81,5,1.,,+428
+428,,82,5,1.,7587,5,1.,,+429
+429,,8668,5,1.,18,5,1.,,+430
+430,,17,5,1.,8665,5,1.,,+431
+431,,7584,5,1.,993,5,1.,,+432
+432,,7351,5,1.,,,,,
MPC,1493975,33532,6,-10.,81,6,1.,,+434
+434,,82,6,1.,7587,6,1.,,+435
+435,,8668,6,1.,18,6,1.,,+436
+436,,17,6,1.,8665,6,1.,,+437
+437,,7584,6,1.,993,6,1.,,+438
+438,,7351,6,1.,,,,,
MPC,1493976,33533,1,-12.,15,1,1.,,+440
+440,,7031,1,1.,10,1,1.,,+441
+441,,7155,1,1.,6936,1,1.,,+442
+442,,6928,1,1.,8882,1,1.,,+443
+443,,8885,1,1.,7154,1,1.,,+444
+444,,9,1,1.,7030,1,1.,,+445
+445,,8341,1,1.,,,,,
MPC,1493976,33533,2,-12.,15,2,1.,,+447
+447,,7031,2,1.,10,2,1.,,+448
+448,,7155,2,1.,6936,2,1.,,+449
+449,,6928,2,1.,8882,2,1.,,+450
+450,,8885,2,1.,7154,2,1.,,+451
+451,,9,2,1.,7030,2,1.,,+452
+452,,8341,2,1.,,,,,
MPC,1493976,33533,3,-12.,15,3,1.,,+454
+454,,7031,3,1.,10,3,1.,,+455
+455,,7155,3,1.,6936,3,1.,,+456
+456,,6928,3,1.,8882,3,1.,,+457
+457,,8885,3,1.,7154,3,1.,,+458
+458,,9,3,1.,7030,3,1.,,+459
+459,,8341,3,1.,,,,,
MPC,1493976,33533,4,-12.,15,4,1.,,+461
+461,,7031,4,1.,10,4,1.,,+462
+462,,7155,4,1.,6936,4,1.,,+463
+463,,6928,4,1.,8882,4,1.,,+464
+464,,8885,4,1.,7154,4,1.,,+465
+465,,9,4,1.,7030,4,1.,,+466
+466,,8341,4,1.,,,,,
MPC,1493976,33533,5,-12.,15,5,1.,,+468
+468,,7031,5,1.,10,5,1.,,+469
+469,,7155,5,1.,6936,5,1.,,+470
+470,,6928,5,1.,8882,5,1.,,+471
+471,,8885,5,1.,7154,5,1.,,+472
+472,,9,5,1.,7030,5,1.,,+473
+473,,8341,5,1.,,,,,
MPC,1493976,33533,6,-12.,15,6,1.,,+475
+475,,7031,6,1.,10,6,1.,,+476
+476,,7155,6,1.,6936,6,1.,,+477
+477,,6928,6,1.,8882,6,1.,,+478
+478,,8885,6,1.,7154,6,1.,,+479
+479,,9,6,1.,7030,6,1.,,+480
+480,,8341,6,1.,,,,,
MPC,1493977,33534,1,-8.,7553,1,1.,,+482
+482,,975,1,1.,9044,1,1.,,+483
+483,,971,1,1.,507,1,1.,,+484
+484,,506,1,1.,8149,1,1.,,+485
+485,,7550,1,1.,,,,,
MPC,1493977,33534,2,-8.,7553,2,1.,,+487
+487,,975,2,1.,9044,2,1.,,+488
+488,,971,2,1.,507,2,1.,,+489
+489,,506,2,1.,8149,2,1.,,+490
+490,,7550,2,1.,,,,,
MPC,1493977,33534,3,-8.,7553,3,1.,,+492
+492,,975,3,1.,9044,3,1.,,+493
+493,,971,3,1.,507,3,1.,,+494
+494,,506,3,1.,8149,3,1.,,+495
+495,,7550,3,1.,,,,,
MPC,1493977,33534,4,-8.,7553,4,1.,,+497
+497,,975,4,1.,9044,4,1.,,+498
+498,,971,4,1.,507,4,1.,,+499
+499,,506,4,1.,8149,4,1.,,+500
+500,,7550,4,1.,,,,,
MPC,1493977,33534,5,-8.,7553,5,1.,,+502
+502,,975,5,1.,9044,5,1.,,+503
+503,,971,5,1.,507,5,1.,,+504
+504,,506,5,1.,8149,5,1.,,+505
+505,,7550,5,1.,,,,,
MPC,1493977,33534,6,-8.,7553,6,1.,,+507
+507,,975,6,1.,9044,6,1.,,+508
+508,,971,6,1.,507,6,1.,,+509
+509,,506,6,1.,8149,6,1.,,+510
+510,,7550,6,1.,,,,,
MPC,1493978,33535,1,-10.,7428,1,1.,,+512
+512,,10877,1,1.,7,1,1.,,+513
+513,,3,1,1.,7649,1,1.,,+514
+514,,8828,1,1.,2,1,1.,,+515
+515,,6,1,1.,7598,1,1.,,+516
+516,,7425,1,1.,,,,,
MPC,1493978,33535,2,-10.,7428,2,1.,,+518
+518,,10877,2,1.,7,2,1.,,+519
+519,,3,2,1.,7649,2,1.,,+520
+520,,8828,2,1.,2,2,1.,,+521
+521,,6,2,1.,7598,2,1.,,+522
+522,,7425,2,1.,,,,,
MPC,1493978,33535,3,-10.,7428,3,1.,,+524
+524,,10877,3,1.,7,3,1.,,+525
+525,,3,3,1.,7649,3,1.,,+526
+526,,8828,3,1.,2,3,1.,,+527
+527,,6,3,1.,7598,3,1.,,+528
+528,,7425,3,1.,,,,,
MPC,1493978,33535,4,-10.,7428,4,1.,,+530
+530,,10877,4,1.,7,4,1.,,+531
+531,,3,4,1.,7649,4,1.,,+532
+532,,8828,4,1.,2,4,1.,,+533
+533,,6,4,1.,7598,4,1.,,+534
+534,,7425,4,1.,,,,,
MPC,1493978,33535,5,-10.,7428,5,1.,,+536
+536,,10877,5,1.,7,5,1.,,+537
+537,,3,5,1.,7649,5,1.,,+538
+538,,8828,5,1.,2,5,1.,,+539
+539,,6,5,1.,7598,5,1.,,+540
+540,,7425,5,1.,,,,,
MPC,1493978,33535,6,-10.,7428,6,1.,,+542
+542,,10877,6,1.,7,6,1.,,+543
+543,,3,6,1.,7649,6,1.,,+544
+544,,8828,6,1.,2,6,1.,,+545
+545,,6,6,1.,7598,6,1.,,+546
+546,,7425,6,1.,,,,,
MPC,1493979,33536,1,-10.,8802,1,1.,,+548
+548,,8798,1,1.,8794,1,1.,,+549
+549,,8066,1,1.,8788,1,1.,,+550
+550,,7951,1,1.,8063,1,1.,,+551
+551,,8583,1,1.,456,1,1.,,+552
+552,,7489,1,1.,,,,,
MPC,1493979,33536,2,-10.,8802,2,1.,,+554
+554,,8798,2,1.,8794,2,1.,,+555
+555,,8066,2,1.,8788,2,1.,,+556
+556,,7951,2,1.,8063,2,1.,,+557
+557,,8583,2,1.,456,2,1.,,+558
+558,,7489,2,1.,,,,,
MPC,1493979,33536,3,-10.,8802,3,1.,,+560
+560,,8798,3,1.,8794,3,1.,,+561
+561,,8066,3,1.,8788,3,1.,,+562
+562,,7951,3,1.,8063,3,1.,,+563
+563,,8583,3,1.,456,3,1.,,+564
+564,,7489,3,1.,,,,,
MPC,1493979,33536,4,-10.,8802,4,1.,,+566
+566,,8798,4,1.,8794,4,1.,,+567
+567,,8066,4,1.,8788,4,1.,,+568
+568,,7951,4,1.,8063,4,1.,,+569
+569,,8583,4,1.,456,4,1.,,+570
+570,,7489,4,1.,,,,,
MPC,1493979,33536,5,-10.,8802,5,1.,,+572
+572,,8798,5,1.,8794,5,1.,,+573
+573,,8066,5,1.,8788,5,1.,,+574
+574,,7951,5,1.,8063,5,1.,,+575
+575,,8583,5,1.,456,5,1.,,+576
+576,,7489,5,1.,,,,,
MPC,1493979,33536,6,-10.,8802,6,1.,,+578
+578,,8798,6,1.,8794,6,1.,,+579
+579,,8066,6,1.,8788,6,1.,,+580
+580,,7951,6,1.,8063,6,1.,,+581
+581,,8583,6,1.,456,6,1.,,+582
+582,,7489,6,1.,,,,,
MPC,1493980,33537,1,-12.,8784,1,1.,,+584
+584,,7795,1,1.,7736,1,1.,,+585
+585,,7830,1,1.,7393,1,1.,,+586
+586,,8611,1,1.,8852,1,1.,,+587
+587,,7390,1,1.,7827,1,1.,,+588
+588,,7739,1,1.,7798,1,1.,,+589
+589,,7888,1,1.,,,,,
MPC,1493980,33537,2,-12.,8784,2,1.,,+591
+591,,7795,2,1.,7736,2,1.,,+592
+592,,7830,2,1.,7393,2,1.,,+593
+593,,8611,2,1.,8852,2,1.,,+594
+594,,7390,2,1.,7827,2,1.,,+595
+595,,7739,2,1.,7798,2,1.,,+596
+596,,7888,2,1.,,,,,
MPC,1493980,33537,3,-12.,8784,3,1.,,+598
+598,,7795,3,1.,7736,3,1.,,+599
+599,,7830,3,1.,7393,3,1.,,+600
+600,,8611,3,1.,8852,3,1.,,+601
+601,,7390,3,1.,7827,3,1.,,+602
+602,,7739,3,1.,7798,3,1.,,+603
+603,,7888,3,1.,,,,,
MPC,1493980,33537,4,-12.,8784,4,1.,,+605
+605,,7795,4,1.,7736,4,1.,,+606
+606,,7830,4,1.,7393,4,1.,,+607
+607,,8611,4,1.,8852,4,1.,,+608
+608,,7390,4,1.,7827,4,1.,,+609
+609,,7739,4,1.,7798,4,1.,,+610
+610,,7888,4,1.,,,,,
MPC,1493980,33537,5,-12.,8784,5,1.,,+612
+612,,7795,5,1.,7736,5,1.,,+613
+613,,7830,5,1.,7393,5,1.,,+614
+614,,8611,5,1.,8852,5,1.,,+615
+615,,7390,5,1.,7827,5,1.,,+616
+616,,7739,5,1.,7798,5,1.,,+617
+617,,7888,5,1.,,,,,
MPC,1493980,33537,6,-12.,8784,6,1.,,+619
+619,,7795,6,1.,7736,6,1.,,+620
+620,,7830,6,1.,7393,6,1.,,+621
+621,,8611,6,1.,8852,6,1.,,+622
+622,,7390,6,1.,7827,6,1.,,+623
+623,,7739,6,1.,7798,6,1.,,+624
+624,,7888,6,1.,,,,,
MPC,1493981,33538,1,-10.,8529,1,1.,,+626
+626,,8695,1,1.,8766,1,1.,,+627
+627,,8200,1,1.,8409,1,1.,,+628
+628,,8405,1,1.,8203,1,1.,,+629
+629,,7332,1,1.,8698,1,1.,,+630
+630,,8526,1,1.,,,,,
MPC,1493981,33538,2,-10.,8529,2,1.,,+632
+632,,8695,2,1.,8766,2,1.,,+633
+633,,8200,2,1.,8409,2,1.,,+634
+634,,8405,2,1.,8203,2,1.,,+635
+635,,7332,2,1.,8698,2,1.,,+636
+636,,8526,2,1.,,,,,
MPC,1493981,33538,3,-10.,8529,3,1.,,+638
+638,,8695,3,1.,8766,3,1.,,+639
+639,,8200,3,1.,8409,3,1.,,+640
+640,,8405,3,1.,8203,3,1.,,+641
+641,,7332,3,1.,8698,3,1.,,+642
+642,,8526,3,1.,,,,,
MPC,1493981,33538,4,-10.,8529,4,1.,,+644
+644,,8695,4,1.,8766,4,1.,,+645
+645,,8200,4,1.,8409,4,1.,,+646
+646,,8405,4,1.,8203,4,1.,,+647
+647,,7332,4,1.,8698,4,1.,,+648
+648,,8526,4,1.,,,,,
MPC,1493981,33538,5,-10.,8529,5,1.,,+650
+650,,8695,5,1.,8766,5,1.,,+651
+651,,8200,5,1.,8409,5,1.,,+652
+652,,8405,5,1.,8203,5,1.,,+653
+653,,7332,5,1.,8698,5,1.,,+654
+654,,8526,5,1.,,,,,
MPC,1493981,33538,6,-10.,8529,6,1.,,+656
+656,,8695,6,1.,8766,6,1.,,+657
+657,,8200,6,1.,8409,6,1.,,+658
+658,,8405,6,1.,8203,6,1.,,+659
+659,,7332,6,1.,8698,6,1.,,+660
+660,,8526,6,1.,,,,,
MPC,1493982,33539,1,-10.,56,1,1.,,+662
+662,,135,1,1.,906,1,1.,,+663
+663,,908,1,1.,910,1,1.,,+664
+664,,8007,1,1.,8498,1,1.,,+665
+665,,8035,1,1.,8439,1,1.,,+666
+666,,10802,1,1.,,,,,
MPC,1493982,33539,2,-10.,56,2,1.,,+668
+668,,135,2,1.,906,2,1.,,+669
+669,,908,2,1.,910,2,1.,,+670
+670,,8007,2,1.,8498,2,1.,,+671
+671,,8035,2,1.,8439,2,1.,,+672
+672,,10802,2,1.,,,,,
MPC,1493982,33539,3,-10.,56,3,1.,,+674
+674,,135,3,1.,906,3,1.,,+675
+675,,908,3,1.,910,3,1.,,+676
+676,,8007,3,1.,8498,3,1.,,+677
+677,,8035,3,1.,8439,3,1.,,+678
+678,,10802,3,1.,,,,,
MPC,1493982,33539,4,-10.,56,4,1.,,+680
+680,,135,4,1.,906,4,1.,,+681
+681,,908,4,1.,910,4,1.,,+682
+682,,8007,4,1.,8498,4,1.,,+683
+683,,8035,4,1.,8439,4,1.,,+684
+684,,10802,4,1.,,,,,
MPC,1493982,33539,5,-10.,56,5,1.,,+686
+686,,135,5,1.,906,5,1.,,+687
+687,,908,5,1.,910,5,1.,,+688
+688,,8007,5,1.,8498,5,1.,,+689
+689,,8035,5,1.,8439,5,1.,,+690
+690,,10802,5,1.,,,,,
MPC,1493982,33539,6,-10.,56,6,1.,,+692
+692,,135,6,1.,906,6,1.,,+693
+693,,908,6,1.,910,6,1.,,+694
+694,,8007,6,1.,8498,6,1.,,+695
+695,,8035,6,1.,8439,6,1.,,+696
+696,,10802,6,1.,,,,,
MPC,1493983,33540,1,-10.,912,1,1.,,+698
+698,,914,1,1.,916,1,1.,,+699
+699,,919,1,1.,921,1,1.,,+700
+700,,8736,1,1.,8740,1,1.,,+701
+701,,7767,1,1.,8121,1,1.,,+702
+702,,8297,1,1.,,,,,
MPC,1493983,33540,2,-10.,912,2,1.,,+704
+704,,914,2,1.,916,2,1.,,+705
+705,,919,2,1.,921,2,1.,,+706
+706,,8736,2,1.,8740,2,1.,,+707
+707,,7767,2,1.,8121,2,1.,,+708
+708,,8297,2,1.,,,,,
MPC,1493983,33540,3,-10.,912,3,1.,,+710
+710,,914,3,1.,916,3,1.,,+711
+711,,919,3,1.,921,3,1.,,+712
+712,,8736,3,1.,8740,3,1.,,+713
+713,,7767,3,1.,8121,3,1.,,+714
+714,,8297,3,1.,,,,,
MPC,1493983,33540,4,-10.,912,4,1.,,+716
+716,,914,4,1.,916,4,1.,,+717
+717,,919,4,1.,921,4,1.,,+718
+718,,8736,4,1.,8740,4,1.,,+719
+719,,7767,4,1.,8121,4,1.,,+720
+720,,8297,4,1.,,,,,
MPC,1493983,33540,5,-10.,912,5,1.,,+722
+722,,914,5,1.,916,5,1.,,+723
+723,,919,5,1.,921,5,1.,,+724
+724,,8736,5,1.,8740,5,1.,,+725
+725,,7767,5,1.,8121,5,1.,,+726
+726,,8297,5,1.,,,,,
MPC,1493983,33540,6,-10.,912,6,1.,,+728
+728,,914,6,1.,916,6,1.,,+729
+729,,919,6,1.,921,6,1.,,+730
+730,,8736,6,1.,8740,6,1.,,+731
+731,,7767,6,1.,8121,6,1.,,+732
+732,,8297,6,1.,,,,,
MPC,1493984,33541,1,-12.,922,1,1.,,+734
+734,,9094,1,1.,8470,1,1.,,+735
+735,,7457,1,1.,33879,1,1.,,+736
+736,,9102,1,1.,8240,1,1.,,+737
+737,,33882,1,1.,86,1,1.,,+738
+738,,8756,1,1.,7921,1,1.,,+739
+739,,8750,1,1.,,,,,
MPC,1493984,33541,2,-12.,922,2,1.,,+741
+741,,9094,2,1.,8470,2,1.,,+742
+742,,7457,2,1.,33879,2,1.,,+743
+743,,9102,2,1.,8240,2,1.,,+744
+744,,33882,2,1.,86,2,1.,,+745
+745,,8756,2,1.,7921,2,1.,,+746
+746,,8750,2,1.,,,,,
MPC,1493984,33541,3,-12.,922,3,1.,,+748
+748,,9094,3,1.,8470,3,1.,,+749
+749,,7457,3,1.,33879,3,1.,,+750
+750,,9102,3,1.,8240,3,1.,,+751
+751,,33882,3,1.,86,3,1.,,+752
+752,,8756,3,1.,7921,3,1.,,+753
+753,,8750,3,1.,,,,,
MPC,1493984,33541,4,-12.,922,4,1.,,+755
+755,,9094,4,1.,8470,4,1.,,+756
+756,,7457,4,1.,33879,4,1.,,+757
+757,,9102,4,1.,8240,4,1.,,+758
+758,,33882,4,1.,86,4,1.,,+759
+759,,8756,4,1.,7921,4,1.,,+760
+760,,8750,4,1.,,,,,
MPC,1493984,33541,5,-12.,922,5,1.,,+762
+762,,9094,5,1.,8470,5,1.,,+763
+763,,7457,5,1.,33879,5,1.,,+764
+764,,9102,5,1.,8240,5,1.,,+765
+765,,33882,5,1.,86,5,1.,,+766
+766,,8756,5,1.,7921,5,1.,,+767
+767,,8750,5,1.,,,,,
MPC,1493984,33541,6,-12.,922,6,1.,,+769
+769,,9094,6,1.,8470,6,1.,,+770
+770,,7457,6,1.,33879,6,1.,,+771
+771,,9102,6,1.,8240,6,1.,,+772
+772,,33882,6,1.,86,6,1.,,+773
+773,,8756,6,1.,7921,6,1.,,+774
+774,,8750,6,1.,,,,,
$,Nodes,of,the,Entire,Model
GRID,2,,{x2},{y2},{z2}
GRID,3,,{x3},{y3},{z3}
GRID,6,,{x6},{y6},{z6}
GRID,7,,{x7},{y7},{z7}
GRID,9,,{x9},{y9},{z9}
GRID,10,,{x10},{y10},{z10}
GRID,13,,{x13},{y13},{z13}
GRID,14,,{x14},{y14},{z14}
GRID,15,,{x15},{y15},{z15}
GRID,17,,{x17},{y17},{z17}
GRID,18,,{x18},{y18},{z18}
GRID,23,,{x23},{y23},{z23}
GRID,24,,{x24},{y24},{z24}
GRID,35,,{x35},{y35},{z35}
GRID,38,,{x38},{y38},{z38}
GRID,39,,{x39},{y39},{z39}
GRID,40,,{x40},{y40},{z40}
GRID,43,,{x43},{y43},{z43}
GRID,44,,{x44},{y44},{z44}
GRID,49,,{x49},{y49},{z49}
$ ... 10804 like lines cut
$,Displacement,Constraints,of,Load,Set,:,spc1.1
SPC1,1,123,15,81,98,185,250,873
,898,901,2525,2528,2569,2572,6183,6184
SPC1,1,123,6266,THRU,6309
SPC1,1,123,6354,THRU,6395
SPC1,1,123,6810,6813,6916,6917,6918,6973
SPC1,1,123,7335,THRU,7364
SPC1,1,123,8341,8343,8904,9036,9050,9204
,9410,9473,9540,9606,9672,9736,9800,9863
,10823,11044,11045
SPC1,1,123,11580,THRU,11622

GRAV,202,0,9.81,0.,0.,-1.0

LOAD,203,1.0,1.0,201,1.0,202

FORCE,201,2,0,1.0,{Fx2},{Fy2},{Fz2}
FORCE,201,3,0,1.0,{Fx3},{Fy3},{Fz3}
FORCE,201,6,0,1.0,{Fx6},{Fy6},{Fz6}
FORCE,201,7,0,1.0,{Fx7},{Fy7},{Fz7}
FORCE,201,9,0,1.0,{Fx9},{Fy9},{Fz9}
FORCE,201,10,0,1.0,{Fx10},{Fy10},{Fz10}
FORCE,201,13,0,1.0,{Fx13},{Fy13},{Fz13}
FORCE,201,14,0,1.0,{Fx14},{Fy14},{Fz14}
FORCE,201,15,0,1.0,{Fx15},{Fy15},{Fz15}
FORCE,201,17,0,1.0,{Fx17},{Fy17},{Fz17}
FORCE,201,18,0,1.0,{Fx18},{Fy18},{Fz18}
FORCE,201,23,0,1.0,{Fx23},{Fy23},{Fz23}
FORCE,201,24,0,1.0,{Fx24},{Fy24},{Fz24}
FORCE,201,35,0,1.0,{Fx35},{Fy35},{Fz35}
FORCE,201,38,0,1.0,{Fx38},{Fy38},{Fz38}
FORCE,201,39,0,1.0,{Fx39},{Fy39},{Fz39}
FORCE,201,40,0,1.0,{Fx40},{Fy40},{Fz40}
FORCE,201,43,0,1.0,{Fx43},{Fy43},{Fz43}
FORCE,201,44,0,1.0,{Fx44},{Fy44},{Fz44}
FORCE,201,49,0,1.0,{Fx49},{Fy49},{Fz49}
$ ... 6604 like lines cut

ENDDATA

$List of nodes belonging to the outer skin
$2
$3
$6
$7
$9
$10
$13
$14
$15
$17
$18
$23
$24
$35
$38
$39
$40
$43
$44
$49
$ ... 6604 like lines cut
